version 2
run B_012-0-20211125-20:52:20-13092
attr configname B_012
attr datetime 20211125-20:52:20
attr experiment B_012
attr inifile omnetpp.ini
attr iterationvars ""
attr iterationvarsf ""
attr measurement ""
attr network scenario
attr processid 13092
attr repetition 0
attr replication #0
attr resultdir results
attr runnumber 0
attr seedset 0
param **.client0.app[0].broadcast 3.0
param **.client1.app[0].broadcast 3.0
param **.client2.app[0].broadcast 3.0
param **.ppp[*].ppp.queue.typename "\"DropTailQueue\""
param **.tcp.typename "\"Tcp\""
param **.tcp.nagleEnabled false
param **.cli*.app[*].nPar 5
param **.cli*.app[*].fPar 0
param **.numApps 1
param **.client0.app[*].typename "\"Node\""
param **.client0.app[0].localPort 1000
param **.client0.app[0].localPortL 1234
param **.client0.app[0].connectAddress "\"\""
param **.client0.app[0].connectPort 1234
param **.client1.app[*].typename "\"Node\""
param **.client1.app[0].localPort 1001
param **.client1.app[0].localPortL 1234
param **.client1.app[0].connectAddress "\"\""
param **.client1.app[0].connectPort 1234
param **.client2.app[*].typename "\"Node\""
param **.client2.app[0].localPort 1002
param **.client2.app[0].localPortL 1234
param **.client2.app[0].connectAddress "\"\""
param **.client2.app[0].connectPort 1234
param **.client3.app[*].typename "\"Node\""
param **.client3.app[0].localPort 1003
param **.client3.app[0].localPortL 1234
param **.client3.app[0].connectAddress "\"\""
param **.client3.app[0].connectPort 1234
param **.client4.app[*].typename "\"Node\""
param **.client4.app[0].localPort 1004
param **.client4.app[0].localPortL 1234
param **.client4.app[0].connectAddress "\"\""
param **.client4.app[0].connectPort 1234

vector 0 scenario.client0.ppp[0].ppp transmissionState:vector ETV
attr interpolationmode sample-hold
attr source transmissionStateChanged
attr title "tx state, vector"
vector 1 scenario.client0.ppp[1].ppp transmissionState:vector ETV
attr interpolationmode sample-hold
attr source transmissionStateChanged
attr title "tx state, vector"
vector 2 scenario.client0.ppp[2].ppp transmissionState:vector ETV
attr interpolationmode sample-hold
attr source transmissionStateChanged
attr title "tx state, vector"
vector 3 scenario.client0.ppp[3].ppp transmissionState:vector ETV
attr interpolationmode sample-hold
attr source transmissionStateChanged
attr title "tx state, vector"
vector 4 scenario.client1.ppp[0].ppp transmissionState:vector ETV
attr interpolationmode sample-hold
attr source transmissionStateChanged
attr title "tx state, vector"
vector 5 scenario.client1.ppp[1].ppp transmissionState:vector ETV
attr interpolationmode sample-hold
attr source transmissionStateChanged
attr title "tx state, vector"
vector 6 scenario.client1.ppp[2].ppp transmissionState:vector ETV
attr interpolationmode sample-hold
attr source transmissionStateChanged
attr title "tx state, vector"
vector 7 scenario.client1.ppp[3].ppp transmissionState:vector ETV
attr interpolationmode sample-hold
attr source transmissionStateChanged
attr title "tx state, vector"
vector 8 scenario.client2.ppp[0].ppp transmissionState:vector ETV
attr interpolationmode sample-hold
attr source transmissionStateChanged
attr title "tx state, vector"
vector 9 scenario.client2.ppp[1].ppp transmissionState:vector ETV
attr interpolationmode sample-hold
attr source transmissionStateChanged
attr title "tx state, vector"
vector 10 scenario.client2.ppp[2].ppp transmissionState:vector ETV
attr interpolationmode sample-hold
attr source transmissionStateChanged
attr title "tx state, vector"
vector 11 scenario.client2.ppp[3].ppp transmissionState:vector ETV
attr interpolationmode sample-hold
attr source transmissionStateChanged
attr title "tx state, vector"
vector 12 scenario.client3.ppp[0].ppp transmissionState:vector ETV
attr interpolationmode sample-hold
attr source transmissionStateChanged
attr title "tx state, vector"
vector 13 scenario.client3.ppp[1].ppp transmissionState:vector ETV
attr interpolationmode sample-hold
attr source transmissionStateChanged
attr title "tx state, vector"
vector 14 scenario.client3.ppp[2].ppp transmissionState:vector ETV
attr interpolationmode sample-hold
attr source transmissionStateChanged
attr title "tx state, vector"
vector 15 scenario.client3.ppp[3].ppp transmissionState:vector ETV
attr interpolationmode sample-hold
attr source transmissionStateChanged
attr title "tx state, vector"
vector 16 scenario.client4.ppp[0].ppp transmissionState:vector ETV
attr interpolationmode sample-hold
attr source transmissionStateChanged
attr title "tx state, vector"
vector 17 scenario.client4.ppp[1].ppp transmissionState:vector ETV
attr interpolationmode sample-hold
attr source transmissionStateChanged
attr title "tx state, vector"
vector 18 scenario.client4.ppp[2].ppp transmissionState:vector ETV
attr interpolationmode sample-hold
attr source transmissionStateChanged
attr title "tx state, vector"
vector 19 scenario.client4.ppp[3].ppp transmissionState:vector ETV
attr interpolationmode sample-hold
attr source transmissionStateChanged
attr title "tx state, vector"
vector 20 scenario.client0.tcp.conn-30 tcpRcvQueueBytes:vector ETV
attr interpolationmode sample-hold
vector 21 scenario.client0.tcp.conn-30 rcvAdv:vector ETV
attr interpolationmode sample-hold
vector 22 scenario.client0.tcp.conn-30 rcvWnd:vector ETV
attr interpolationmode sample-hold
vector 23 scenario.client0.tcp.conn-30 sndAck:vector ETV
attr interpolationmode sample-hold
vector 24 scenario.client0.ppp[0].ppp rcvdPkFromHl:vector(packetBytes) ETV
attr interpolationmode none
attr source packetReceivedFromUpper
attr title "packets received from higher layer, vector(packetBytes)"
vector 25 scenario.client0.ppp[0].ppp.queue packetPushed:vector(packetBytes) ETV
attr interpolationmode none
attr title "packet pushed, vector(packetBytes)"
vector 26 scenario.client0.ppp[0].ppp.queue queueLength:vector ETV
attr interpolationmode sample-hold
attr source "count(packetPushed) - count(packetPopped) - count(packetRemoved) - count(packetDropped)"
attr title "queue length, vector"
vector 27 scenario.client0.ppp[0].ppp.queue packetPopped:vector(packetBytes) ETV
attr interpolationmode none
attr title "packet popped, vector(packetBytes)"
vector 28 scenario.client0.ppp[0].ppp.queue queueingTime:vector ETV
attr interpolationmode none
attr source queueingTime(packetPopped)
attr title "queueing times, vector"
attr unit s
vector 29 scenario.client0.ppp[0].ppp txPk:vector(packetBytes) ETV
attr interpolationmode none
attr source packetSentToLower
attr title "packets transmitted, vector(packetBytes)"
vector 30 scenario.client1.ppp[0].ppp rxPkOk:vector(packetBytes) ETV
attr interpolationmode none
attr source rxPkOk
attr title "packets received OK, vector(packetBytes)"
vector 31 scenario.client1.ppp[0].ppp passedUpPk:vector(packetBytes) ETV
attr interpolationmode none
attr source packetSentToUpper
attr title "packets passed to higher layer, vector(packetBytes)"
vector 32 scenario.client1.tcp.conn-26 rcvSeq:vector ETV
attr interpolationmode sample-hold
vector 33 scenario.client1.tcp.conn-26 rcvAck:vector ETV
attr interpolationmode sample-hold
vector 34 scenario.client1.tcp.conn-31 rcvAdv:vector ETV
attr interpolationmode sample-hold
vector 35 scenario.client1.tcp.conn-31 sndWnd:vector ETV
attr interpolationmode sample-hold
vector 36 scenario.client1.tcp.conn-31 tcpRcvQueueBytes:vector ETV
attr interpolationmode sample-hold
vector 37 scenario.client1.tcp.conn-31 rcvWnd:vector ETV
attr interpolationmode sample-hold
vector 38 scenario.client1.tcp.conn-31 sndAck:vector ETV
attr interpolationmode sample-hold
vector 39 scenario.client1.ppp[0].ppp rcvdPkFromHl:vector(packetBytes) ETV
attr interpolationmode none
attr source packetReceivedFromUpper
attr title "packets received from higher layer, vector(packetBytes)"
vector 40 scenario.client1.ppp[0].ppp.queue packetPushed:vector(packetBytes) ETV
attr interpolationmode none
attr title "packet pushed, vector(packetBytes)"
vector 41 scenario.client1.ppp[0].ppp.queue queueLength:vector ETV
attr interpolationmode sample-hold
attr source "count(packetPushed) - count(packetPopped) - count(packetRemoved) - count(packetDropped)"
attr title "queue length, vector"
vector 42 scenario.client1.ppp[0].ppp.queue packetPopped:vector(packetBytes) ETV
attr interpolationmode none
attr title "packet popped, vector(packetBytes)"
vector 43 scenario.client1.ppp[0].ppp.queue queueingTime:vector ETV
attr interpolationmode none
attr source queueingTime(packetPopped)
attr title "queueing times, vector"
attr unit s
vector 44 scenario.client1.ppp[0].ppp txPk:vector(packetBytes) ETV
attr interpolationmode none
attr source packetSentToLower
attr title "packets transmitted, vector(packetBytes)"
vector 45 scenario.client0.ppp[0].ppp rxPkOk:vector(packetBytes) ETV
attr interpolationmode none
attr source rxPkOk
attr title "packets received OK, vector(packetBytes)"
vector 46 scenario.client0.ppp[0].ppp passedUpPk:vector(packetBytes) ETV
attr interpolationmode none
attr source packetSentToUpper
attr title "packets passed to higher layer, vector(packetBytes)"
vector 47 scenario.client0.tcp.conn-30 rcvSeq:vector ETV
attr interpolationmode sample-hold
vector 48 scenario.client0.tcp.conn-30 rcvAck:vector ETV
attr interpolationmode sample-hold
vector 49 scenario.client0.tcp.conn-30 sndWnd:vector ETV
attr interpolationmode sample-hold
vector 50 scenario.client0.tcp.conn-30 unacked:vector ETV
attr interpolationmode sample-hold
vector 51 scenario.client1.tcp.conn-31 rcvSeq:vector ETV
attr interpolationmode sample-hold
vector 52 scenario.client1.tcp.conn-31 rcvAck:vector ETV
attr interpolationmode sample-hold
vector 53 scenario.client1.tcp.conn-31 unacked:vector ETV
attr interpolationmode sample-hold
vector 54 scenario.client1.tcp.conn-31 cwnd:vector ETV
attr interpolationmode sample-hold
vector 55 scenario.client1.tcp.conn-31 ssthresh:vector ETV
attr interpolationmode sample-hold
vector 56 scenario.client1.tcp.conn-31 dupAcks:vector ETV
attr interpolationmode sample-hold
vector 57 scenario.client0.tcp.conn-30 rtt:vector ETV
attr interpolationmode sample-hold
vector 58 scenario.client0.tcp.conn-30 srtt:vector ETV
attr interpolationmode sample-hold
vector 59 scenario.client0.tcp.conn-30 rttvar:vector ETV
attr interpolationmode sample-hold
vector 60 scenario.client0.tcp.conn-30 rto:vector ETV
attr interpolationmode sample-hold
vector 61 scenario.client0.tcp.conn-30 cwnd:vector ETV
attr interpolationmode sample-hold
vector 62 scenario.client0.tcp.conn-30 ssthresh:vector ETV
attr interpolationmode sample-hold
vector 63 scenario.client0.tcp.conn-30 dupAcks:vector ETV
attr interpolationmode sample-hold
vector 64 scenario.client1.tcp.conn-32 tcpRcvQueueBytes:vector ETV
attr interpolationmode sample-hold
vector 65 scenario.client1.tcp.conn-32 rcvAdv:vector ETV
attr interpolationmode sample-hold
vector 66 scenario.client1.tcp.conn-32 rcvWnd:vector ETV
attr interpolationmode sample-hold
vector 67 scenario.client1.tcp.conn-32 sndAck:vector ETV
attr interpolationmode sample-hold
vector 68 scenario.client0.tcp.conn-25 rcvSeq:vector ETV
attr interpolationmode sample-hold
vector 69 scenario.client0.tcp.conn-25 rcvAck:vector ETV
attr interpolationmode sample-hold
vector 70 scenario.client0.tcp.conn-33 rcvAdv:vector ETV
attr interpolationmode sample-hold
vector 71 scenario.client0.tcp.conn-33 sndWnd:vector ETV
attr interpolationmode sample-hold
vector 72 scenario.client0.tcp.conn-33 tcpRcvQueueBytes:vector ETV
attr interpolationmode sample-hold
vector 73 scenario.client0.tcp.conn-33 rcvWnd:vector ETV
attr interpolationmode sample-hold
vector 74 scenario.client0.tcp.conn-33 sndAck:vector ETV
attr interpolationmode sample-hold
vector 75 scenario.client1.tcp.conn-32 rcvSeq:vector ETV
attr interpolationmode sample-hold
vector 76 scenario.client1.tcp.conn-32 rcvAck:vector ETV
attr interpolationmode sample-hold
vector 77 scenario.client1.tcp.conn-32 sndWnd:vector ETV
attr interpolationmode sample-hold
vector 78 scenario.client1.tcp.conn-32 unacked:vector ETV
attr interpolationmode sample-hold
vector 79 scenario.client0.tcp.conn-33 rcvSeq:vector ETV
attr interpolationmode sample-hold
vector 80 scenario.client0.tcp.conn-33 rcvAck:vector ETV
attr interpolationmode sample-hold
vector 81 scenario.client0.tcp.conn-33 unacked:vector ETV
attr interpolationmode sample-hold
vector 82 scenario.client0.tcp.conn-33 cwnd:vector ETV
attr interpolationmode sample-hold
vector 83 scenario.client0.tcp.conn-33 ssthresh:vector ETV
attr interpolationmode sample-hold
vector 84 scenario.client0.tcp.conn-33 dupAcks:vector ETV
attr interpolationmode sample-hold
vector 85 scenario.client1.tcp.conn-32 rtt:vector ETV
attr interpolationmode sample-hold
vector 86 scenario.client1.tcp.conn-32 srtt:vector ETV
attr interpolationmode sample-hold
vector 87 scenario.client1.tcp.conn-32 rttvar:vector ETV
attr interpolationmode sample-hold
vector 88 scenario.client1.tcp.conn-32 rto:vector ETV
attr interpolationmode sample-hold
vector 89 scenario.client1.tcp.conn-32 cwnd:vector ETV
attr interpolationmode sample-hold
vector 90 scenario.client1.tcp.conn-32 ssthresh:vector ETV
attr interpolationmode sample-hold
vector 91 scenario.client1.tcp.conn-32 dupAcks:vector ETV
attr interpolationmode sample-hold
vector 92 scenario.client2.tcp.conn-34 tcpRcvQueueBytes:vector ETV
attr interpolationmode sample-hold
vector 93 scenario.client2.tcp.conn-34 rcvAdv:vector ETV
attr interpolationmode sample-hold
vector 94 scenario.client2.tcp.conn-34 rcvWnd:vector ETV
attr interpolationmode sample-hold
vector 95 scenario.client2.tcp.conn-34 sndAck:vector ETV
attr interpolationmode sample-hold
vector 96 scenario.client2.ppp[1].ppp rcvdPkFromHl:vector(packetBytes) ETV
attr interpolationmode none
attr source packetReceivedFromUpper
attr title "packets received from higher layer, vector(packetBytes)"
vector 97 scenario.client2.ppp[1].ppp.queue packetPushed:vector(packetBytes) ETV
attr interpolationmode none
attr title "packet pushed, vector(packetBytes)"
vector 98 scenario.client2.ppp[1].ppp.queue queueLength:vector ETV
attr interpolationmode sample-hold
attr source "count(packetPushed) - count(packetPopped) - count(packetRemoved) - count(packetDropped)"
attr title "queue length, vector"
vector 99 scenario.client2.ppp[1].ppp.queue packetPopped:vector(packetBytes) ETV
attr interpolationmode none
attr title "packet popped, vector(packetBytes)"
vector 100 scenario.client2.ppp[1].ppp.queue queueingTime:vector ETV
attr interpolationmode none
attr source queueingTime(packetPopped)
attr title "queueing times, vector"
attr unit s
vector 101 scenario.client2.ppp[1].ppp txPk:vector(packetBytes) ETV
attr interpolationmode none
attr source packetSentToLower
attr title "packets transmitted, vector(packetBytes)"
vector 102 scenario.client1.ppp[1].ppp rxPkOk:vector(packetBytes) ETV
attr interpolationmode none
attr source rxPkOk
attr title "packets received OK, vector(packetBytes)"
vector 103 scenario.client1.ppp[1].ppp passedUpPk:vector(packetBytes) ETV
attr interpolationmode none
attr source packetSentToUpper
attr title "packets passed to higher layer, vector(packetBytes)"
vector 104 scenario.client1.tcp.conn-35 rcvAdv:vector ETV
attr interpolationmode sample-hold
vector 105 scenario.client1.tcp.conn-35 sndWnd:vector ETV
attr interpolationmode sample-hold
vector 106 scenario.client1.tcp.conn-35 tcpRcvQueueBytes:vector ETV
attr interpolationmode sample-hold
vector 107 scenario.client1.tcp.conn-35 rcvWnd:vector ETV
attr interpolationmode sample-hold
vector 108 scenario.client1.tcp.conn-35 sndAck:vector ETV
attr interpolationmode sample-hold
vector 109 scenario.client1.ppp[1].ppp rcvdPkFromHl:vector(packetBytes) ETV
attr interpolationmode none
attr source packetReceivedFromUpper
attr title "packets received from higher layer, vector(packetBytes)"
vector 110 scenario.client1.ppp[1].ppp.queue packetPushed:vector(packetBytes) ETV
attr interpolationmode none
attr title "packet pushed, vector(packetBytes)"
vector 111 scenario.client1.ppp[1].ppp.queue queueLength:vector ETV
attr interpolationmode sample-hold
attr source "count(packetPushed) - count(packetPopped) - count(packetRemoved) - count(packetDropped)"
attr title "queue length, vector"
vector 112 scenario.client1.ppp[1].ppp.queue packetPopped:vector(packetBytes) ETV
attr interpolationmode none
attr title "packet popped, vector(packetBytes)"
vector 113 scenario.client1.ppp[1].ppp.queue queueingTime:vector ETV
attr interpolationmode none
attr source queueingTime(packetPopped)
attr title "queueing times, vector"
attr unit s
vector 114 scenario.client1.ppp[1].ppp txPk:vector(packetBytes) ETV
attr interpolationmode none
attr source packetSentToLower
attr title "packets transmitted, vector(packetBytes)"
vector 115 scenario.client2.ppp[1].ppp rxPkOk:vector(packetBytes) ETV
attr interpolationmode none
attr source rxPkOk
attr title "packets received OK, vector(packetBytes)"
vector 116 scenario.client2.ppp[1].ppp passedUpPk:vector(packetBytes) ETV
attr interpolationmode none
attr source packetSentToUpper
attr title "packets passed to higher layer, vector(packetBytes)"
vector 117 scenario.client2.tcp.conn-34 rcvSeq:vector ETV
attr interpolationmode sample-hold
vector 118 scenario.client2.tcp.conn-34 rcvAck:vector ETV
attr interpolationmode sample-hold
vector 119 scenario.client2.tcp.conn-34 sndWnd:vector ETV
attr interpolationmode sample-hold
vector 120 scenario.client2.tcp.conn-34 unacked:vector ETV
attr interpolationmode sample-hold
vector 121 scenario.client1.tcp.conn-35 rcvSeq:vector ETV
attr interpolationmode sample-hold
vector 122 scenario.client1.tcp.conn-35 rcvAck:vector ETV
attr interpolationmode sample-hold
vector 123 scenario.client1.tcp.conn-35 unacked:vector ETV
attr interpolationmode sample-hold
vector 124 scenario.client1.tcp.conn-35 cwnd:vector ETV
attr interpolationmode sample-hold
vector 125 scenario.client1.tcp.conn-35 ssthresh:vector ETV
attr interpolationmode sample-hold
vector 126 scenario.client1.tcp.conn-35 dupAcks:vector ETV
attr interpolationmode sample-hold
vector 127 scenario.client2.tcp.conn-34 rtt:vector ETV
attr interpolationmode sample-hold
vector 128 scenario.client2.tcp.conn-34 srtt:vector ETV
attr interpolationmode sample-hold
vector 129 scenario.client2.tcp.conn-34 rttvar:vector ETV
attr interpolationmode sample-hold
vector 130 scenario.client2.tcp.conn-34 rto:vector ETV
attr interpolationmode sample-hold
vector 131 scenario.client2.tcp.conn-34 cwnd:vector ETV
attr interpolationmode sample-hold
vector 132 scenario.client2.tcp.conn-34 ssthresh:vector ETV
attr interpolationmode sample-hold
vector 133 scenario.client2.tcp.conn-34 dupAcks:vector ETV
attr interpolationmode sample-hold
vector 134 scenario.client1.tcp.conn-36 tcpRcvQueueBytes:vector ETV
attr interpolationmode sample-hold
vector 135 scenario.client1.tcp.conn-36 rcvAdv:vector ETV
attr interpolationmode sample-hold
vector 136 scenario.client1.tcp.conn-36 rcvWnd:vector ETV
attr interpolationmode sample-hold
vector 137 scenario.client1.tcp.conn-36 sndAck:vector ETV
attr interpolationmode sample-hold
vector 138 scenario.client2.tcp.conn-27 rcvSeq:vector ETV
attr interpolationmode sample-hold
vector 139 scenario.client2.tcp.conn-27 rcvAck:vector ETV
attr interpolationmode sample-hold
vector 140 scenario.client2.tcp.conn-37 rcvAdv:vector ETV
attr interpolationmode sample-hold
vector 141 scenario.client2.tcp.conn-37 sndWnd:vector ETV
attr interpolationmode sample-hold
vector 142 scenario.client2.tcp.conn-37 tcpRcvQueueBytes:vector ETV
attr interpolationmode sample-hold
vector 143 scenario.client2.tcp.conn-37 rcvWnd:vector ETV
attr interpolationmode sample-hold
vector 144 scenario.client2.tcp.conn-37 sndAck:vector ETV
attr interpolationmode sample-hold
vector 145 scenario.client1.tcp.conn-36 rcvSeq:vector ETV
attr interpolationmode sample-hold
vector 146 scenario.client1.tcp.conn-36 rcvAck:vector ETV
attr interpolationmode sample-hold
vector 147 scenario.client1.tcp.conn-36 sndWnd:vector ETV
attr interpolationmode sample-hold
vector 148 scenario.client1.tcp.conn-36 unacked:vector ETV
attr interpolationmode sample-hold
vector 149 scenario.client2.tcp.conn-37 rcvSeq:vector ETV
attr interpolationmode sample-hold
vector 150 scenario.client2.tcp.conn-37 rcvAck:vector ETV
attr interpolationmode sample-hold
vector 151 scenario.client2.tcp.conn-37 unacked:vector ETV
attr interpolationmode sample-hold
vector 152 scenario.client2.tcp.conn-37 cwnd:vector ETV
attr interpolationmode sample-hold
vector 153 scenario.client2.tcp.conn-37 ssthresh:vector ETV
attr interpolationmode sample-hold
vector 154 scenario.client2.tcp.conn-37 dupAcks:vector ETV
attr interpolationmode sample-hold
vector 155 scenario.client1.tcp.conn-36 rtt:vector ETV
attr interpolationmode sample-hold
vector 156 scenario.client1.tcp.conn-36 srtt:vector ETV
attr interpolationmode sample-hold
vector 157 scenario.client1.tcp.conn-36 rttvar:vector ETV
attr interpolationmode sample-hold
vector 158 scenario.client1.tcp.conn-36 rto:vector ETV
attr interpolationmode sample-hold
vector 159 scenario.client1.tcp.conn-36 cwnd:vector ETV
attr interpolationmode sample-hold
vector 160 scenario.client1.tcp.conn-36 ssthresh:vector ETV
attr interpolationmode sample-hold
vector 161 scenario.client1.tcp.conn-36 dupAcks:vector ETV
attr interpolationmode sample-hold
vector 162 scenario.client0.tcp.conn-38 tcpRcvQueueBytes:vector ETV
attr interpolationmode sample-hold
vector 163 scenario.client0.tcp.conn-38 rcvAdv:vector ETV
attr interpolationmode sample-hold
vector 164 scenario.client0.tcp.conn-38 rcvWnd:vector ETV
attr interpolationmode sample-hold
vector 165 scenario.client0.tcp.conn-38 sndAck:vector ETV
attr interpolationmode sample-hold
vector 166 scenario.client0.ppp[1].ppp rcvdPkFromHl:vector(packetBytes) ETV
attr interpolationmode none
attr source packetReceivedFromUpper
attr title "packets received from higher layer, vector(packetBytes)"
vector 167 scenario.client0.ppp[1].ppp.queue packetPushed:vector(packetBytes) ETV
attr interpolationmode none
attr title "packet pushed, vector(packetBytes)"
vector 168 scenario.client0.ppp[1].ppp.queue queueLength:vector ETV
attr interpolationmode sample-hold
attr source "count(packetPushed) - count(packetPopped) - count(packetRemoved) - count(packetDropped)"
attr title "queue length, vector"
vector 169 scenario.client0.ppp[1].ppp.queue packetPopped:vector(packetBytes) ETV
attr interpolationmode none
attr title "packet popped, vector(packetBytes)"
vector 170 scenario.client0.ppp[1].ppp.queue queueingTime:vector ETV
attr interpolationmode none
attr source queueingTime(packetPopped)
attr title "queueing times, vector"
attr unit s
vector 171 scenario.client0.ppp[1].ppp txPk:vector(packetBytes) ETV
attr interpolationmode none
attr source packetSentToLower
attr title "packets transmitted, vector(packetBytes)"
vector 172 scenario.client2.ppp[0].ppp rxPkOk:vector(packetBytes) ETV
attr interpolationmode none
attr source rxPkOk
attr title "packets received OK, vector(packetBytes)"
vector 173 scenario.client2.ppp[0].ppp passedUpPk:vector(packetBytes) ETV
attr interpolationmode none
attr source packetSentToUpper
attr title "packets passed to higher layer, vector(packetBytes)"
vector 174 scenario.client2.tcp.conn-39 rcvAdv:vector ETV
attr interpolationmode sample-hold
vector 175 scenario.client2.tcp.conn-39 sndWnd:vector ETV
attr interpolationmode sample-hold
vector 176 scenario.client2.tcp.conn-39 tcpRcvQueueBytes:vector ETV
attr interpolationmode sample-hold
vector 177 scenario.client2.tcp.conn-39 rcvWnd:vector ETV
attr interpolationmode sample-hold
vector 178 scenario.client2.tcp.conn-39 sndAck:vector ETV
attr interpolationmode sample-hold
vector 179 scenario.client2.ppp[0].ppp rcvdPkFromHl:vector(packetBytes) ETV
attr interpolationmode none
attr source packetReceivedFromUpper
attr title "packets received from higher layer, vector(packetBytes)"
vector 180 scenario.client2.ppp[0].ppp.queue packetPushed:vector(packetBytes) ETV
attr interpolationmode none
attr title "packet pushed, vector(packetBytes)"
vector 181 scenario.client2.ppp[0].ppp.queue queueLength:vector ETV
attr interpolationmode sample-hold
attr source "count(packetPushed) - count(packetPopped) - count(packetRemoved) - count(packetDropped)"
attr title "queue length, vector"
vector 182 scenario.client2.ppp[0].ppp.queue packetPopped:vector(packetBytes) ETV
attr interpolationmode none
attr title "packet popped, vector(packetBytes)"
vector 183 scenario.client2.ppp[0].ppp.queue queueingTime:vector ETV
attr interpolationmode none
attr source queueingTime(packetPopped)
attr title "queueing times, vector"
attr unit s
vector 184 scenario.client2.ppp[0].ppp txPk:vector(packetBytes) ETV
attr interpolationmode none
attr source packetSentToLower
attr title "packets transmitted, vector(packetBytes)"
vector 185 scenario.client0.ppp[1].ppp rxPkOk:vector(packetBytes) ETV
attr interpolationmode none
attr source rxPkOk
attr title "packets received OK, vector(packetBytes)"
vector 186 scenario.client0.ppp[1].ppp passedUpPk:vector(packetBytes) ETV
attr interpolationmode none
attr source packetSentToUpper
attr title "packets passed to higher layer, vector(packetBytes)"
vector 187 scenario.client0.tcp.conn-38 rcvSeq:vector ETV
attr interpolationmode sample-hold
vector 188 scenario.client0.tcp.conn-38 rcvAck:vector ETV
attr interpolationmode sample-hold
vector 189 scenario.client0.tcp.conn-38 sndWnd:vector ETV
attr interpolationmode sample-hold
vector 190 scenario.client0.tcp.conn-38 unacked:vector ETV
attr interpolationmode sample-hold
vector 191 scenario.client2.tcp.conn-39 rcvSeq:vector ETV
attr interpolationmode sample-hold
vector 192 scenario.client2.tcp.conn-39 rcvAck:vector ETV
attr interpolationmode sample-hold
vector 193 scenario.client2.tcp.conn-39 unacked:vector ETV
attr interpolationmode sample-hold
vector 194 scenario.client2.tcp.conn-39 cwnd:vector ETV
attr interpolationmode sample-hold
vector 195 scenario.client2.tcp.conn-39 ssthresh:vector ETV
attr interpolationmode sample-hold
vector 196 scenario.client2.tcp.conn-39 dupAcks:vector ETV
attr interpolationmode sample-hold
vector 197 scenario.client0.tcp.conn-38 rtt:vector ETV
attr interpolationmode sample-hold
vector 198 scenario.client0.tcp.conn-38 srtt:vector ETV
attr interpolationmode sample-hold
vector 199 scenario.client0.tcp.conn-38 rttvar:vector ETV
attr interpolationmode sample-hold
vector 200 scenario.client0.tcp.conn-38 rto:vector ETV
attr interpolationmode sample-hold
vector 201 scenario.client0.tcp.conn-38 cwnd:vector ETV
attr interpolationmode sample-hold
vector 202 scenario.client0.tcp.conn-38 ssthresh:vector ETV
attr interpolationmode sample-hold
vector 203 scenario.client0.tcp.conn-38 dupAcks:vector ETV
attr interpolationmode sample-hold
vector 204 scenario.client2.tcp.conn-40 tcpRcvQueueBytes:vector ETV
attr interpolationmode sample-hold
vector 205 scenario.client2.tcp.conn-40 rcvAdv:vector ETV
attr interpolationmode sample-hold
vector 206 scenario.client2.tcp.conn-40 rcvWnd:vector ETV
attr interpolationmode sample-hold
vector 207 scenario.client2.tcp.conn-40 sndAck:vector ETV
attr interpolationmode sample-hold
vector 208 scenario.client0.tcp.conn-41 rcvAdv:vector ETV
attr interpolationmode sample-hold
vector 209 scenario.client0.tcp.conn-41 sndWnd:vector ETV
attr interpolationmode sample-hold
vector 210 scenario.client0.tcp.conn-41 tcpRcvQueueBytes:vector ETV
attr interpolationmode sample-hold
vector 211 scenario.client0.tcp.conn-41 rcvWnd:vector ETV
attr interpolationmode sample-hold
vector 212 scenario.client0.tcp.conn-41 sndAck:vector ETV
attr interpolationmode sample-hold
vector 213 scenario.client2.tcp.conn-40 rcvSeq:vector ETV
attr interpolationmode sample-hold
vector 214 scenario.client2.tcp.conn-40 rcvAck:vector ETV
attr interpolationmode sample-hold
vector 215 scenario.client2.tcp.conn-40 sndWnd:vector ETV
attr interpolationmode sample-hold
vector 216 scenario.client2.tcp.conn-40 unacked:vector ETV
attr interpolationmode sample-hold
vector 217 scenario.client0.tcp.conn-41 rcvSeq:vector ETV
attr interpolationmode sample-hold
vector 218 scenario.client0.tcp.conn-41 rcvAck:vector ETV
attr interpolationmode sample-hold
vector 219 scenario.client0.tcp.conn-41 unacked:vector ETV
attr interpolationmode sample-hold
vector 220 scenario.client0.tcp.conn-41 cwnd:vector ETV
attr interpolationmode sample-hold
vector 221 scenario.client0.tcp.conn-41 ssthresh:vector ETV
attr interpolationmode sample-hold
vector 222 scenario.client0.tcp.conn-41 dupAcks:vector ETV
attr interpolationmode sample-hold
vector 223 scenario.client2.tcp.conn-40 rtt:vector ETV
attr interpolationmode sample-hold
vector 224 scenario.client2.tcp.conn-40 srtt:vector ETV
attr interpolationmode sample-hold
vector 225 scenario.client2.tcp.conn-40 rttvar:vector ETV
attr interpolationmode sample-hold
vector 226 scenario.client2.tcp.conn-40 rto:vector ETV
attr interpolationmode sample-hold
vector 227 scenario.client2.tcp.conn-40 cwnd:vector ETV
attr interpolationmode sample-hold
vector 228 scenario.client2.tcp.conn-40 ssthresh:vector ETV
attr interpolationmode sample-hold
vector 229 scenario.client2.tcp.conn-40 dupAcks:vector ETV
attr interpolationmode sample-hold
0	0	0	0
0	18	3.049165318766	1
0	19	3.049573318766	0
0	31	3.050981318766	1
0	32	3.051365318766	0
0	56	3.098184860866	1
0	57	3.098592860866	0
0	71	3.099976860866	1
0	74	3.100352860866	0
0	231	3.991209632496	1
0	232	3.991585632496	0
0	314	4.512388589983	1
0	315	4.512772589983	0
0	336	4.57488842384	1
0	337	4.57526442384	0
0	344	4.741598743492	1
0	345	4.741982743492	0
0	366	4.783834287057	1
0	367	4.784210287057	0
0	449	5.09002649263	1
0	450	5.09041049263	0
0	516	5.171508839381	1
0	517	5.171884839381	0
0	531	5.198487201758	1
0	532	5.198863201758	0
0	546	5.201250312325	1
0	547	5.201626312325	0
0	561	5.217851344706	1
0	562	5.218227344706	0
0	629	5.39147218189	1
0	630	5.39185618189	0
0	674	5.505719110202	1
0	675	5.506103110202	0
0	719	5.588132420178	1
0	720	5.588516420178	0
0	794	5.872628039063	1
0	795	5.873012039063	0
0	831	5.903265512253	1
0	832	5.903641512253	0
0	861	5.989725486373	1
0	862	5.990101486373	0
0	904	6.024151401836	1
0	905	6.024535401836	0
0	919	6.114774930265	1
0	920	6.115158930265	0
1	0	0	0
1	146	3.68141727958	1
1	147	3.68182527958	0
1	159	3.68323327958	1
1	160	3.68361727958	0
1	184	3.713301566698	1
1	185	3.713709566698	0
1	199	3.715093566698	1
1	202	3.715469566698	0
1	246	4.136400553239	1
1	247	4.136776553239	0
1	254	4.140399514755	1
1	255	4.140783514755	0
1	269	4.308921687307	1
1	270	4.309305687307	0
1	400	4.945779869503	1
1	402	4.946155869503	0
1	419	4.953791866329	1
1	420	4.954175866329	0
1	441	4.976818230414	1
1	442	4.977194230414	0
1	471	5.116164707907	1
1	472	5.116540707907	0
1	501	5.157256695456	1
1	502	5.157632695456	0
1	569	5.29739769097	1
1	570	5.29778169097	0
1	614	5.385369516769	1
1	615	5.385753516769	0
1	704	5.581664569719	1
1	705	5.582048569719	0
1	734	5.640198034119	1
1	735	5.640582034119	0
1	756	5.798603172094	1
1	757	5.798979172094	0
1	771	5.833470717856	1
1	772	5.833846717856	0
1	779	5.859504043214	1
1	780	5.859888043214	0
1	869	5.992533189245	1
1	870	5.992917189245	0
1	941	6.360586413525	1
1	942	6.360962413525	0
1	1001	6.850926268502	1
1	1002	6.851302268502	0
2	0	0	0
3	0	0	0
4	0	0	0
4	24	3.050073318766	1
4	25	3.050481318766	0
4	39	3.051865318766	1
4	42	3.052241318766	0
4	50	3.097276860866	1
4	51	3.097684860866	0
4	63	3.099092860866	1
4	64	3.099476860866	0
4	224	3.990325632496	1
4	225	3.990709632496	0
4	321	4.513272589983	1
4	322	4.513648589983	0
4	329	4.57400442384	1
4	330	4.57438842384	0
4	351	4.742482743492	1
4	352	4.742858743492	0
4	359	4.782950287057	1
4	360	4.783334287057	0
4	456	5.09091049263	1
4	457	5.09128649263	0
4	509	5.170624839381	1
4	510	5.171008839381	0
4	524	5.197603201758	1
4	525	5.197987201758	0
4	539	5.200366312325	1
4	540	5.200750312325	0
4	554	5.216967344706	1
4	555	5.217351344706	0
4	636	5.39235618189	1
4	637	5.39273218189	0
4	681	5.506603110202	1
4	682	5.506979110202	0
4	726	5.589016420178	1
4	727	5.589392420178	0
4	801	5.873512039063	1
4	802	5.873888039063	0
4	824	5.902381512253	1
4	825	5.902765512253	0
4	854	5.988841486373	1
4	855	5.989225486373	0
4	911	6.025035401836	1
4	912	6.025411401836	0
4	926	6.115658930265	1
4	927	6.116034930265	0
5	0	0	0
5	88	3.297151171484	1
5	89	3.297559171484	0
5	103	3.298943171484	1
5	106	3.299319171484	0
5	114	3.661275063326	1
5	115	3.661683063326	0
5	127	3.663091063326	1
5	128	3.663475063326	0
5	209	3.957380013429	1
5	210	3.957764013429	0
5	291	4.314292944975	1
5	292	4.314668944975	0
5	306	4.423394542802	1
5	307	4.423770542802	0
5	374	4.890541367351	1
5	375	4.890925367351	0
5	394	4.945596758446	1
5	401	4.945980758446	0
5	486	5.120072113894	1
5	487	5.120448113894	0
5	591	5.338764642475	1
5	592	5.339140642475	0
5	599	5.377343148777	1
5	600	5.377727148777	0
5	651	5.39524003235	1
5	652	5.39561603235	0
5	659	5.438091129978	1
5	660	5.438475129978	0
5	689	5.56965435078	1
5	690	5.57003835078	0
5	809	5.889639885861	1
5	810	5.890023885861	0
5	839	5.978466229925	1
5	840	5.978850229925	0
5	896	6.021694513138	1
5	897	6.022070513138	0
5	956	6.449944609271	1
5	957	6.450320609271	0
5	971	6.51490207123	1
5	972	6.51527807123	0
5	986	6.72720526786	1
5	987	6.72758126786	0
5	1009	7.193283944578	1
5	1010	7.193667944578	0
6	0	0	0
7	0	0	0
8	0	0	0
8	152	3.68232527958	1
8	153	3.68273327958	0
8	167	3.68411727958	1
8	170	3.68449327958	0
8	178	3.712393566698	1
8	179	3.712801566698	0
8	191	3.714209566698	1
8	192	3.714593566698	0
8	239	4.135516553239	1
8	240	4.135900553239	0
8	261	4.141283514755	1
8	262	4.141659514755	0
8	276	4.309805687307	1
8	277	4.310181687307	0
8	389	4.944895869503	1
8	390	4.945279869503	0
8	426	4.954675866329	1
8	427	4.955051866329	0
8	434	4.975934230414	1
8	435	4.976318230414	0
8	464	5.115280707907	1
8	465	5.115664707907	0
8	494	5.156372695456	1
8	495	5.156756695456	0
8	576	5.29828169097	1
8	577	5.29865769097	0
8	621	5.386253516769	1
8	622	5.386629516769	0
8	711	5.582548569719	1
8	712	5.582924569719	0
8	741	5.641082034119	1
8	742	5.641458034119	0
8	749	5.797719172094	1
8	750	5.798103172094	0
8	764	5.832586717856	1
8	765	5.832970717856	0
8	786	5.860388043214	1
8	787	5.860764043214	0
8	876	5.993417189245	1
8	877	5.993793189245	0
8	934	6.359702413525	1
8	935	6.360086413525	0
8	994	6.850042268502	1
8	995	6.850426268502	0
9	0	0	0
9	82	3.296243171484	1
9	83	3.296651171484	0
9	95	3.298059171484	1
9	96	3.298443171484	0
9	120	3.662183063326	1
9	121	3.662591063326	0
9	135	3.663975063326	1
9	138	3.664351063326	0
9	216	3.958264013429	1
9	217	3.958640013429	0
9	284	4.313408944975	1
9	285	4.313792944975	0
9	299	4.422510542802	1
9	300	4.422894542802	0
9	381	4.891425367351	1
9	382	4.891801367351	0
9	408	4.946480758446	1
9	412	4.946856758446	0
9	479	5.119188113894	1
9	480	5.119572113894	0
9	584	5.337880642475	1
9	585	5.338264642475	0
9	606	5.378227148777	1
9	607	5.378603148777	0
9	644	5.39435603235	1
9	645	5.39474003235	0
9	666	5.438975129978	1
9	667	5.439351129978	0
9	696	5.57053835078	1
9	697	5.57091435078	0
9	816	5.890523885861	1
9	817	5.890899885861	0
9	846	5.979350229925	1
9	847	5.979726229925	0
9	889	6.020810513138	1
9	890	6.021194513138	0
9	949	6.449060609271	1
9	950	6.449444609271	0
9	964	6.51401807123	1
9	965	6.51440207123	0
9	979	6.72632126786	1
9	980	6.72670526786	0
9	1016	7.194167944578	1
9	1017	7.194543944578	0
10	0	0	0
11	0	0	0
12	0	0	0
13	0	0	0
14	0	0	0
15	0	0	0
16	0	0	0
17	0	0	0
18	0	0	0
19	0	0	0
20	15	3.049165318766	0
20	28	3.050981318766	0
20	312	4.512388589983	0
20	342	4.741598743492	0
20	447	5.09002649263	0
20	627	5.39147218189	0
20	672	5.505719110202	0
20	717	5.588132420178	0
20	792	5.872628039063	0
20	902	6.024151401836	0
20	917	6.114774930265	0
21	15	3.049165318766	7504
21	28	3.050981318766	770023
21	28	3.050981318766	770023
21	312	4.512388589983	770023
21	342	4.741598743492	770023
21	447	5.09002649263	770023
21	627	5.39147218189	770023
21	672	5.505719110202	770023
21	717	5.588132420178	770023
21	792	5.872628039063	770023
21	902	6.024151401836	770023
21	917	6.114774930265	770023
22	15	3.049165318766	7504
22	28	3.050981318766	7504
22	312	4.512388589983	7504
22	342	4.741598743492	7504
22	447	5.09002649263	7504
22	627	5.39147218189	7504
22	672	5.505719110202	7504
22	717	5.588132420178	7504
22	792	5.872628039063	7504
22	902	6.024151401836	7504
22	917	6.114774930265	7504
23	15	3.049165318766	0
23	28	3.050981318766	762519
23	312	4.512388589983	762519
23	342	4.741598743492	762519
23	447	5.09002649263	762519
23	627	5.39147218189	762519
23	672	5.505719110202	762519
23	717	5.588132420178	762519
23	792	5.872628039063	762519
23	902	6.024151401836	762519
23	917	6.114774930265	762519
24	18	3.049165318766	44
24	31	3.050981318766	41
24	56	3.098184860866	44
24	71	3.099976860866	40
24	231	3.991209632496	40
24	314	4.512388589983	41
24	336	4.57488842384	40
24	344	4.741598743492	41
24	366	4.783834287057	40
24	449	5.09002649263	41
24	516	5.171508839381	40
24	531	5.198487201758	40
24	546	5.201250312325	40
24	561	5.217851344706	40
24	629	5.39147218189	41
24	674	5.505719110202	41
24	719	5.588132420178	41
24	794	5.872628039063	41
24	831	5.903265512253	40
24	861	5.989725486373	40
24	904	6.024151401836	41
24	919	6.114774930265	41
25	18	3.049165318766	44
25	31	3.050981318766	41
25	56	3.098184860866	44
25	71	3.099976860866	40
25	231	3.991209632496	40
25	314	4.512388589983	41
25	336	4.57488842384	40
25	344	4.741598743492	41
25	366	4.783834287057	40
25	449	5.09002649263	41
25	516	5.171508839381	40
25	531	5.198487201758	40
25	546	5.201250312325	40
25	561	5.217851344706	40
25	629	5.39147218189	41
25	674	5.505719110202	41
25	719	5.588132420178	41
25	794	5.872628039063	41
25	831	5.903265512253	40
25	861	5.989725486373	40
25	904	6.024151401836	41
25	919	6.114774930265	41
26	18	3.049165318766	1
26	18	3.049165318766	0
26	31	3.050981318766	1
26	31	3.050981318766	0
26	56	3.098184860866	1
26	56	3.098184860866	0
26	71	3.099976860866	1
26	71	3.099976860866	0
26	231	3.991209632496	1
26	231	3.991209632496	0
26	314	4.512388589983	1
26	314	4.512388589983	0
26	336	4.57488842384	1
26	336	4.57488842384	0
26	344	4.741598743492	1
26	344	4.741598743492	0
26	366	4.783834287057	1
26	366	4.783834287057	0
26	449	5.09002649263	1
26	449	5.09002649263	0
26	516	5.171508839381	1
26	516	5.171508839381	0
26	531	5.198487201758	1
26	531	5.198487201758	0
26	546	5.201250312325	1
26	546	5.201250312325	0
26	561	5.217851344706	1
26	561	5.217851344706	0
26	629	5.39147218189	1
26	629	5.39147218189	0
26	674	5.505719110202	1
26	674	5.505719110202	0
26	719	5.588132420178	1
26	719	5.588132420178	0
26	794	5.872628039063	1
26	794	5.872628039063	0
26	831	5.903265512253	1
26	831	5.903265512253	0
26	861	5.989725486373	1
26	861	5.989725486373	0
26	904	6.024151401836	1
26	904	6.024151401836	0
26	919	6.114774930265	1
26	919	6.114774930265	0
27	18	3.049165318766	44
27	31	3.050981318766	41
27	56	3.098184860866	44
27	71	3.099976860866	40
27	231	3.991209632496	40
27	314	4.512388589983	41
27	336	4.57488842384	40
27	344	4.741598743492	41
27	366	4.783834287057	40
27	449	5.09002649263	41
27	516	5.171508839381	40
27	531	5.198487201758	40
27	546	5.201250312325	40
27	561	5.217851344706	40
27	629	5.39147218189	41
27	674	5.505719110202	41
27	719	5.588132420178	41
27	794	5.872628039063	41
27	831	5.903265512253	40
27	861	5.989725486373	40
27	904	6.024151401836	41
27	919	6.114774930265	41
28	18	3.049165318766	0
28	31	3.050981318766	0
28	56	3.098184860866	0
28	71	3.099976860866	0
28	231	3.991209632496	0
28	314	4.512388589983	0
28	336	4.57488842384	0
28	344	4.741598743492	0
28	366	4.783834287057	0
28	449	5.09002649263	0
28	516	5.171508839381	0
28	531	5.198487201758	0
28	546	5.201250312325	0
28	561	5.217851344706	0
28	629	5.39147218189	0
28	674	5.505719110202	0
28	719	5.588132420178	0
28	794	5.872628039063	0
28	831	5.903265512253	0
28	861	5.989725486373	0
28	904	6.024151401836	0
28	919	6.114774930265	0
29	18	3.049165318766	51
29	31	3.050981318766	48
29	56	3.098184860866	51
29	71	3.099976860866	47
29	231	3.991209632496	47
29	314	4.512388589983	48
29	336	4.57488842384	47
29	344	4.741598743492	48
29	366	4.783834287057	47
29	449	5.09002649263	48
29	516	5.171508839381	47
29	531	5.198487201758	47
29	546	5.201250312325	47
29	561	5.217851344706	47
29	629	5.39147218189	48
29	674	5.505719110202	48
29	719	5.588132420178	48
29	794	5.872628039063	48
29	831	5.903265512253	47
29	861	5.989725486373	47
29	904	6.024151401836	48
29	919	6.114774930265	48
30	20	3.050073318766	51
30	33	3.051865318766	48
30	58	3.099092860866	51
30	75	3.100852860866	47
30	233	3.992085632496	47
30	316	4.513272589983	48
30	338	4.57576442384	47
30	346	4.742482743492	48
30	368	4.784710287057	47
30	451	5.09091049263	48
30	518	5.172384839381	47
30	533	5.199363201758	47
30	548	5.202126312325	47
30	563	5.218727344706	47
30	631	5.39235618189	48
30	676	5.506603110202	48
30	721	5.589016420178	48
30	796	5.873512039063	48
30	833	5.904141512253	47
30	863	5.990601486373	47
30	906	6.025035401836	48
30	921	6.115658930265	48
31	20	3.050073318766	44
31	33	3.051865318766	41
31	58	3.099092860866	44
31	75	3.100852860866	40
31	233	3.992085632496	40
31	316	4.513272589983	41
31	338	4.57576442384	40
31	346	4.742482743492	41
31	368	4.784710287057	40
31	451	5.09091049263	41
31	518	5.172384839381	40
31	533	5.199363201758	40
31	548	5.202126312325	40
31	563	5.218727344706	40
31	631	5.39235618189	41
31	676	5.506603110202	41
31	721	5.589016420178	41
31	796	5.873512039063	41
31	833	5.904141512253	40
31	863	5.990601486373	40
31	906	6.025035401836	41
31	921	6.115658930265	41
32	22	3.050073318766	762291
32	86	3.297151171484	824060
33	22	3.050073318766	0
33	86	3.297151171484	0
34	22	3.050073318766	769796
34	22	3.050073318766	769796
34	35	3.051865318766	769796
34	318	4.513272589983	769798
34	348	4.742482743492	769799
34	453	5.09091049263	769800
34	633	5.39235618189	769801
34	678	5.506603110202	769802
34	723	5.589016420178	769803
34	798	5.873512039063	769804
34	908	6.025035401836	769805
34	923	6.115658930265	769806
35	22	3.050073318766	7504
35	35	3.051865318766	7504
36	22	3.050073318766	0
36	35	3.051865318766	0
36	35	3.051865318766	1
36	318	4.513272589983	0
36	318	4.513272589983	0
36	348	4.742482743492	0
36	348	4.742482743492	0
36	453	5.09091049263	0
36	453	5.09091049263	0
36	633	5.39235618189	0
36	633	5.39235618189	0
36	678	5.506603110202	0
36	678	5.506603110202	0
36	723	5.589016420178	0
36	723	5.589016420178	0
36	798	5.873512039063	0
36	798	5.873512039063	0
36	908	6.025035401836	0
36	908	6.025035401836	0
36	923	6.115658930265	0
36	923	6.115658930265	0
37	22	3.050073318766	7504
37	35	3.051865318766	7503
37	318	4.513272589983	7504
37	348	4.742482743492	7504
37	453	5.09091049263	7504
37	633	5.39235618189	7504
37	678	5.506603110202	7504
37	723	5.589016420178	7504
37	798	5.873512039063	7504
37	908	6.025035401836	7504
37	923	6.115658930265	7504
38	22	3.050073318766	762292
38	35	3.051865318766	762293
38	318	4.513272589983	762294
38	348	4.742482743492	762295
38	453	5.09091049263	762296
38	633	5.39235618189	762297
38	678	5.506603110202	762298
38	723	5.589016420178	762299
38	798	5.873512039063	762300
38	908	6.025035401836	762301
38	923	6.115658930265	762302
39	24	3.050073318766	44
39	39	3.051865318766	40
39	50	3.097276860866	44
39	63	3.099092860866	41
39	224	3.990325632496	41
39	321	4.513272589983	40
39	329	4.57400442384	41
39	351	4.742482743492	40
39	359	4.782950287057	41
39	456	5.09091049263	40
39	509	5.170624839381	41
39	524	5.197603201758	41
39	539	5.200366312325	41
39	554	5.216967344706	41
39	636	5.39235618189	40
39	681	5.506603110202	40
39	726	5.589016420178	40
39	801	5.873512039063	40
39	824	5.902381512253	41
39	854	5.988841486373	41
39	911	6.025035401836	40
39	926	6.115658930265	40
40	24	3.050073318766	44
40	39	3.051865318766	40
40	50	3.097276860866	44
40	63	3.099092860866	41
40	224	3.990325632496	41
40	321	4.513272589983	40
40	329	4.57400442384	41
40	351	4.742482743492	40
40	359	4.782950287057	41
40	456	5.09091049263	40
40	509	5.170624839381	41
40	524	5.197603201758	41
40	539	5.200366312325	41
40	554	5.216967344706	41
40	636	5.39235618189	40
40	681	5.506603110202	40
40	726	5.589016420178	40
40	801	5.873512039063	40
40	824	5.902381512253	41
40	854	5.988841486373	41
40	911	6.025035401836	40
40	926	6.115658930265	40
41	24	3.050073318766	1
41	24	3.050073318766	0
41	39	3.051865318766	1
41	39	3.051865318766	0
41	50	3.097276860866	1
41	50	3.097276860866	0
41	63	3.099092860866	1
41	63	3.099092860866	0
41	224	3.990325632496	1
41	224	3.990325632496	0
41	321	4.513272589983	1
41	321	4.513272589983	0
41	329	4.57400442384	1
41	329	4.57400442384	0
41	351	4.742482743492	1
41	351	4.742482743492	0
41	359	4.782950287057	1
41	359	4.782950287057	0
41	456	5.09091049263	1
41	456	5.09091049263	0
41	509	5.170624839381	1
41	509	5.170624839381	0
41	524	5.197603201758	1
41	524	5.197603201758	0
41	539	5.200366312325	1
41	539	5.200366312325	0
41	554	5.216967344706	1
41	554	5.216967344706	0
41	636	5.39235618189	1
41	636	5.39235618189	0
41	681	5.506603110202	1
41	681	5.506603110202	0
41	726	5.589016420178	1
41	726	5.589016420178	0
41	801	5.873512039063	1
41	801	5.873512039063	0
41	824	5.902381512253	1
41	824	5.902381512253	0
41	854	5.988841486373	1
41	854	5.988841486373	0
41	911	6.025035401836	1
41	911	6.025035401836	0
41	926	6.115658930265	1
41	926	6.115658930265	0
42	24	3.050073318766	44
42	39	3.051865318766	40
42	50	3.097276860866	44
42	63	3.099092860866	41
42	224	3.990325632496	41
42	321	4.513272589983	40
42	329	4.57400442384	41
42	351	4.742482743492	40
42	359	4.782950287057	41
42	456	5.09091049263	40
42	509	5.170624839381	41
42	524	5.197603201758	41
42	539	5.200366312325	41
42	554	5.216967344706	41
42	636	5.39235618189	40
42	681	5.506603110202	40
42	726	5.589016420178	40
42	801	5.873512039063	40
42	824	5.902381512253	41
42	854	5.988841486373	41
42	911	6.025035401836	40
42	926	6.115658930265	40
43	24	3.050073318766	0
43	39	3.051865318766	0
43	50	3.097276860866	0
43	63	3.099092860866	0
43	224	3.990325632496	0
43	321	4.513272589983	0
43	329	4.57400442384	0
43	351	4.742482743492	0
43	359	4.782950287057	0
43	456	5.09091049263	0
43	509	5.170624839381	0
43	524	5.197603201758	0
43	539	5.200366312325	0
43	554	5.216967344706	0
43	636	5.39235618189	0
43	681	5.506603110202	0
43	726	5.589016420178	0
43	801	5.873512039063	0
43	824	5.902381512253	0
43	854	5.988841486373	0
43	911	6.025035401836	0
43	926	6.115658930265	0
44	24	3.050073318766	51
44	39	3.051865318766	47
44	50	3.097276860866	51
44	63	3.099092860866	48
44	224	3.990325632496	48
44	321	4.513272589983	47
44	329	4.57400442384	48
44	351	4.742482743492	47
44	359	4.782950287057	48
44	456	5.09091049263	47
44	509	5.170624839381	48
44	524	5.197603201758	48
44	539	5.200366312325	48
44	554	5.216967344706	48
44	636	5.39235618189	47
44	681	5.506603110202	47
44	726	5.589016420178	47
44	801	5.873512039063	47
44	824	5.902381512253	48
44	854	5.988841486373	48
44	911	6.025035401836	47
44	926	6.115658930265	47
45	26	3.050981318766	51
45	43	3.052741318766	47
45	52	3.098184860866	51
45	65	3.099976860866	48
45	226	3.991209632496	48
45	323	4.514148589983	47
45	331	4.57488842384	48
45	353	4.743358743492	47
45	361	4.783834287057	48
45	458	5.09178649263	47
45	511	5.171508839381	48
45	526	5.198487201758	48
45	541	5.201250312325	48
45	556	5.217851344706	48
45	638	5.39323218189	47
45	683	5.507479110202	47
45	728	5.589892420178	47
45	803	5.874388039063	47
45	826	5.903265512253	48
45	856	5.989725486373	48
45	913	6.025911401836	47
45	928	6.116534930265	47
46	26	3.050981318766	44
46	43	3.052741318766	40
46	52	3.098184860866	44
46	65	3.099976860866	41
46	226	3.991209632496	41
46	323	4.514148589983	40
46	331	4.57488842384	41
46	353	4.743358743492	40
46	361	4.783834287057	41
46	458	5.09178649263	40
46	511	5.171508839381	41
46	526	5.198487201758	41
46	541	5.201250312325	41
46	556	5.217851344706	41
46	638	5.39323218189	40
46	683	5.507479110202	40
46	728	5.589892420178	40
46	803	5.874388039063	40
46	826	5.903265512253	41
46	856	5.989725486373	41
46	913	6.025911401836	40
46	928	6.116534930265	40
47	28	3.050981318766	762518
47	45	3.052741318766	762519
47	325	4.514148589983	762519
47	355	4.743358743492	762519
47	460	5.09178649263	762519
47	640	5.39323218189	762519
47	685	5.507479110202	762519
47	730	5.589892420178	762519
47	805	5.874388039063	762519
47	915	6.025911401836	762519
47	930	6.116534930265	762519
48	28	3.050981318766	762292
48	45	3.052741318766	762293
48	325	4.514148589983	762294
48	355	4.743358743492	762295
48	460	5.09178649263	762296
48	640	5.39323218189	762297
48	685	5.507479110202	762298
48	730	5.589892420178	762299
48	805	5.874388039063	762300
48	915	6.025911401836	762301
48	930	6.116534930265	762302
49	28	3.050981318766	7504
49	45	3.052741318766	7503
49	325	4.514148589983	7504
49	355	4.743358743492	7504
49	460	5.09178649263	7504
49	640	5.39323218189	7504
49	685	5.507479110202	7504
49	730	5.589892420178	7504
49	805	5.874388039063	7504
49	915	6.025911401836	7504
49	930	6.116534930265	7504
50	28	3.050981318766	1
50	45	3.052741318766	0
50	312	4.512388589983	1
50	325	4.514148589983	0
50	342	4.741598743492	1
50	355	4.743358743492	0
50	447	5.09002649263	1
50	460	5.09178649263	0
50	627	5.39147218189	1
50	640	5.39323218189	0
50	672	5.505719110202	1
50	685	5.507479110202	0
50	717	5.588132420178	1
50	730	5.589892420178	0
50	792	5.872628039063	1
50	805	5.874388039063	0
50	902	6.024151401836	1
50	915	6.025911401836	0
50	917	6.114774930265	1
50	930	6.116534930265	0
51	35	3.051865318766	762292
51	318	4.513272589983	762293
51	348	4.742482743492	762294
51	453	5.09091049263	762295
51	633	5.39235618189	762296
51	678	5.506603110202	762297
51	723	5.589016420178	762298
51	798	5.873512039063	762299
51	908	6.025035401836	762300
51	923	6.115658930265	762301
52	35	3.051865318766	762519
52	318	4.513272589983	762519
52	348	4.742482743492	762519
52	453	5.09091049263	762519
52	633	5.39235618189	762519
52	678	5.506603110202	762519
52	723	5.589016420178	762519
52	798	5.873512039063	762519
52	908	6.025035401836	762519
52	923	6.115658930265	762519
53	35	3.051865318766	0
54	35	3.051865318766	1072
55	35	3.051865318766	4294967295
56	35	3.051865318766	0
56	318	4.513272589983	0
56	348	4.742482743492	0
56	453	5.09091049263	0
56	633	5.39235618189	0
56	678	5.506603110202	0
56	723	5.589016420178	0
56	798	5.873512039063	0
56	908	6.025035401836	0
56	923	6.115658930265	0
57	45	3.052741318766	0.00176
57	325	4.514148589983	0.00176
57	355	4.743358743492	0.00176
57	460	5.09178649263	0.00176
57	640	5.39323218189	0.00176
57	685	5.507479110202	0.00176
57	730	5.589892420178	0.00176
57	805	5.874388039063	0.00176
57	915	6.025911401836	0.00176
57	930	6.116534930265	0.00176
58	45	3.052741318766	0.00022
58	325	4.514148589983	0.0004125
58	355	4.743358743492	0.0005809375
58	460	5.09178649263	0.000728320313
58	640	5.39323218189	0.000857280274
58	685	5.507479110202	0.00097012024
58	730	5.589892420178	0.00106885521
58	805	5.874388039063	0.001155248309
58	915	6.025911401836	0.00123084227
58	930	6.116534930265	0.001296986986
59	45	3.052741318766	0.65647
59	325	4.514148589983	0.57460375
59	355	4.743358743492	0.50294671875
59	460	5.09178649263	0.440225761719
59	640	5.39323218189	0.385326501465
59	685	5.507479110202	0.337273528748
59	730	5.589892420178	0.295213072625
59	805	5.874388039063	0.258397831646
59	915	6.025911401836	0.226173696652
59	930	6.116534930265	0.197968129287
60	45	3.052741318766	2.6261
60	325	4.514148589983	2.2988275
60	355	4.743358743492	2.0123678125
60	460	5.09178649263	1.761631367189
60	640	5.39323218189	1.542163286134
60	685	5.507479110202	1.350064235232
60	730	5.589892420178	1.18192114571
60	805	5.874388039063	1.034746574893
60	915	6.025911401836	1
60	930	6.116534930265	1
61	45	3.052741318766	1072
61	325	4.514148589983	1608
61	355	4.743358743492	2144
61	460	5.09178649263	2680
61	640	5.39323218189	3216
61	685	5.507479110202	3752
61	730	5.589892420178	4288
61	805	5.874388039063	4824
61	915	6.025911401836	5360
61	930	6.116534930265	5896
62	45	3.052741318766	4294967295
62	325	4.514148589983	4294967295
62	355	4.743358743492	4294967295
62	460	5.09178649263	4294967295
62	640	5.39323218189	4294967295
62	685	5.507479110202	4294967295
62	730	5.589892420178	4294967295
62	805	5.874388039063	4294967295
62	915	6.025911401836	4294967295
62	930	6.116534930265	4294967295
63	45	3.052741318766	0
63	325	4.514148589983	0
63	355	4.743358743492	0
63	460	5.09178649263	0
63	640	5.39323218189	0
63	685	5.507479110202	0
63	730	5.589892420178	0
63	805	5.874388039063	0
63	915	6.025911401836	0
63	930	6.116534930265	0
64	47	3.097276860866	0
64	60	3.099092860866	0
64	222	3.990325632496	0
64	327	4.57400442384	0
64	357	4.782950287057	0
64	507	5.170624839381	0
64	522	5.197603201758	0
64	537	5.200366312325	0
64	552	5.216967344706	0
64	822	5.902381512253	0
64	852	5.988841486373	0
65	47	3.097276860866	7504
65	60	3.099092860866	782051
65	60	3.099092860866	782051
65	222	3.990325632496	782051
65	327	4.57400442384	782051
65	357	4.782950287057	782051
65	507	5.170624839381	782051
65	522	5.197603201758	782051
65	537	5.200366312325	782051
65	552	5.216967344706	782051
65	822	5.902381512253	782051
65	852	5.988841486373	782051
66	47	3.097276860866	7504
66	60	3.099092860866	7504
66	222	3.990325632496	7504
66	327	4.57400442384	7504
66	357	4.782950287057	7504
66	507	5.170624839381	7504
66	522	5.197603201758	7504
66	537	5.200366312325	7504
66	552	5.216967344706	7504
66	822	5.902381512253	7504
66	852	5.988841486373	7504
67	47	3.097276860866	0
67	60	3.099092860866	774547
67	222	3.990325632496	774547
67	327	4.57400442384	774547
67	357	4.782950287057	774547
67	507	5.170624839381	774547
67	522	5.197603201758	774547
67	537	5.200366312325	774547
67	552	5.216967344706	774547
67	822	5.902381512253	774547
67	852	5.988841486373	774547
68	54	3.098184860866	774319
68	182	3.713301566698	928098
69	54	3.098184860866	0
69	182	3.713301566698	0
70	54	3.098184860866	781824
70	54	3.098184860866	781824
70	67	3.099976860866	781824
70	228	3.991209632496	781826
70	333	4.57488842384	781827
70	363	4.783834287057	781828
70	513	5.171508839381	781829
70	528	5.198487201758	781830
70	543	5.201250312325	781831
70	558	5.217851344706	781832
70	828	5.903265512253	781833
70	858	5.989725486373	781834
71	54	3.098184860866	7504
71	67	3.099976860866	7504
72	54	3.098184860866	0
72	67	3.099976860866	0
72	67	3.099976860866	1
72	228	3.991209632496	0
72	228	3.991209632496	0
72	333	4.57488842384	0
72	333	4.57488842384	0
72	363	4.783834287057	0
72	363	4.783834287057	0
72	513	5.171508839381	0
72	513	5.171508839381	0
72	528	5.198487201758	0
72	528	5.198487201758	0
72	543	5.201250312325	0
72	543	5.201250312325	0
72	558	5.217851344706	0
72	558	5.217851344706	0
72	828	5.903265512253	0
72	828	5.903265512253	0
72	858	5.989725486373	0
72	858	5.989725486373	0
73	54	3.098184860866	7504
73	67	3.099976860866	7503
73	228	3.991209632496	7504
73	333	4.57488842384	7504
73	363	4.783834287057	7504
73	513	5.171508839381	7504
73	528	5.198487201758	7504
73	543	5.201250312325	7504
73	558	5.217851344706	7504
73	828	5.903265512253	7504
73	858	5.989725486373	7504
74	54	3.098184860866	774320
74	67	3.099976860866	774321
74	228	3.991209632496	774322
74	333	4.57488842384	774323
74	363	4.783834287057	774324
74	513	5.171508839381	774325
74	528	5.198487201758	774326
74	543	5.201250312325	774327
74	558	5.217851344706	774328
74	828	5.903265512253	774329
74	858	5.989725486373	774330
75	60	3.099092860866	774546
75	77	3.100852860866	774547
75	235	3.992085632496	774547
75	340	4.57576442384	774547
75	370	4.784710287057	774547
75	520	5.172384839381	774547
75	535	5.199363201758	774547
75	550	5.202126312325	774547
75	565	5.218727344706	774547
75	835	5.904141512253	774547
75	865	5.990601486373	774547
76	60	3.099092860866	774320
76	77	3.100852860866	774321
76	235	3.992085632496	774322
76	340	4.57576442384	774323
76	370	4.784710287057	774324
76	520	5.172384839381	774325
76	535	5.199363201758	774326
76	550	5.202126312325	774327
76	565	5.218727344706	774328
76	835	5.904141512253	774329
76	865	5.990601486373	774330
77	60	3.099092860866	7504
77	77	3.100852860866	7503
77	235	3.992085632496	7504
77	340	4.57576442384	7504
77	370	4.784710287057	7504
77	520	5.172384839381	7504
77	535	5.199363201758	7504
77	550	5.202126312325	7504
77	565	5.218727344706	7504
77	835	5.904141512253	7504
77	865	5.990601486373	7504
78	60	3.099092860866	1
78	77	3.100852860866	0
78	222	3.990325632496	1
78	235	3.992085632496	0
78	327	4.57400442384	1
78	340	4.57576442384	0
78	357	4.782950287057	1
78	370	4.784710287057	0
78	507	5.170624839381	1
78	520	5.172384839381	0
78	522	5.197603201758	1
78	535	5.199363201758	0
78	537	5.200366312325	1
78	550	5.202126312325	0
78	552	5.216967344706	1
78	565	5.218727344706	0
78	822	5.902381512253	1
78	835	5.904141512253	0
78	852	5.988841486373	1
78	865	5.990601486373	0
79	67	3.099976860866	774320
79	228	3.991209632496	774321
79	333	4.57488842384	774322
79	363	4.783834287057	774323
79	513	5.171508839381	774324
79	528	5.198487201758	774325
79	543	5.201250312325	774326
79	558	5.217851344706	774327
79	828	5.903265512253	774328
79	858	5.989725486373	774329
80	67	3.099976860866	774547
80	228	3.991209632496	774547
80	333	4.57488842384	774547
80	363	4.783834287057	774547
80	513	5.171508839381	774547
80	528	5.198487201758	774547
80	543	5.201250312325	774547
80	558	5.217851344706	774547
80	828	5.903265512253	774547
80	858	5.989725486373	774547
81	67	3.099976860866	0
82	67	3.099976860866	1072
83	67	3.099976860866	4294967295
84	67	3.099976860866	0
84	228	3.991209632496	0
84	333	4.57488842384	0
84	363	4.783834287057	0
84	513	5.171508839381	0
84	528	5.198487201758	0
84	543	5.201250312325	0
84	558	5.217851344706	0
84	828	5.903265512253	0
84	858	5.989725486373	0
85	77	3.100852860866	0.00176
85	235	3.992085632496	0.00176
85	340	4.57576442384	0.00176
85	370	4.784710287057	0.00176
85	520	5.172384839381	0.00176
85	535	5.199363201758	0.00176
85	550	5.202126312325	0.00176
85	565	5.218727344706	0.00176
85	835	5.904141512253	0.00176
85	865	5.990601486373	0.00176
86	77	3.100852860866	0.00022
86	235	3.992085632496	0.0004125
86	340	4.57576442384	0.0005809375
86	370	4.784710287057	0.000728320313
86	520	5.172384839381	0.000857280274
86	535	5.199363201758	0.00097012024
86	550	5.202126312325	0.00106885521
86	565	5.218727344706	0.001155248309
86	835	5.904141512253	0.00123084227
86	865	5.990601486373	0.001296986986
87	77	3.100852860866	0.65647
87	235	3.992085632496	0.57460375
87	340	4.57576442384	0.50294671875
87	370	4.784710287057	0.440225761719
87	520	5.172384839381	0.385326501465
87	535	5.199363201758	0.337273528748
87	550	5.202126312325	0.295213072625
87	565	5.218727344706	0.258397831646
87	835	5.904141512253	0.226173696652
87	865	5.990601486373	0.197968129287
88	77	3.100852860866	2.6261
88	235	3.992085632496	2.2988275
88	340	4.57576442384	2.0123678125
88	370	4.784710287057	1.761631367189
88	520	5.172384839381	1.542163286134
88	535	5.199363201758	1.350064235232
88	550	5.202126312325	1.18192114571
88	565	5.218727344706	1.034746574893
88	835	5.904141512253	1
88	865	5.990601486373	1
89	77	3.100852860866	1072
89	235	3.992085632496	1608
89	340	4.57576442384	2144
89	370	4.784710287057	2680
89	520	5.172384839381	3216
89	535	5.199363201758	3752
89	550	5.202126312325	4288
89	565	5.218727344706	4824
89	835	5.904141512253	5360
89	865	5.990601486373	5896
90	77	3.100852860866	4294967295
90	235	3.992085632496	4294967295
90	340	4.57576442384	4294967295
90	370	4.784710287057	4294967295
90	520	5.172384839381	4294967295
90	535	5.199363201758	4294967295
90	550	5.202126312325	4294967295
90	565	5.218727344706	4294967295
90	835	5.904141512253	4294967295
90	865	5.990601486373	4294967295
91	77	3.100852860866	0
91	235	3.992085632496	0
91	340	4.57576442384	0
91	370	4.784710287057	0
91	520	5.172384839381	0
91	535	5.199363201758	0
91	550	5.202126312325	0
91	565	5.218727344706	0
91	835	5.904141512253	0
91	865	5.990601486373	0
92	79	3.296243171484	0
92	92	3.298059171484	0
92	282	4.313408944975	0
92	297	4.422510542802	0
92	477	5.119188113894	0
92	582	5.337880642475	0
92	642	5.39435603235	0
92	887	6.020810513138	0
92	947	6.449060609271	0
92	962	6.51401807123	0
92	977	6.72632126786	0
93	79	3.296243171484	7504
93	92	3.298059171484	831792
93	92	3.298059171484	831792
93	282	4.313408944975	831792
93	297	4.422510542802	831792
93	477	5.119188113894	831792
93	582	5.337880642475	831792
93	642	5.39435603235	831792
93	887	6.020810513138	831792
93	947	6.449060609271	831792
93	962	6.51401807123	831792
93	977	6.72632126786	831792
94	79	3.296243171484	7504
94	92	3.298059171484	7504
94	282	4.313408944975	7504
94	297	4.422510542802	7504
94	477	5.119188113894	7504
94	582	5.337880642475	7504
94	642	5.39435603235	7504
94	887	6.020810513138	7504
94	947	6.449060609271	7504
94	962	6.51401807123	7504
94	977	6.72632126786	7504
95	79	3.296243171484	0
95	92	3.298059171484	824288
95	282	4.313408944975	824288
95	297	4.422510542802	824288
95	477	5.119188113894	824288
95	582	5.337880642475	824288
95	642	5.39435603235	824288
95	887	6.020810513138	824288
95	947	6.449060609271	824288
95	962	6.51401807123	824288
95	977	6.72632126786	824288
96	82	3.296243171484	44
96	95	3.298059171484	41
96	120	3.662183063326	44
96	135	3.663975063326	40
96	216	3.958264013429	40
96	284	4.313408944975	41
96	299	4.422510542802	41
96	381	4.891425367351	40
96	408	4.946480758446	40
96	479	5.119188113894	41
96	584	5.337880642475	41
96	606	5.378227148777	40
96	644	5.39435603235	41
96	666	5.438975129978	40
96	696	5.57053835078	40
96	816	5.890523885861	40
96	846	5.979350229925	40
96	889	6.020810513138	41
96	949	6.449060609271	41
96	964	6.51401807123	41
96	979	6.72632126786	41
96	1016	7.194167944578	40
97	82	3.296243171484	44
97	95	3.298059171484	41
97	120	3.662183063326	44
97	135	3.663975063326	40
97	216	3.958264013429	40
97	284	4.313408944975	41
97	299	4.422510542802	41
97	381	4.891425367351	40
97	408	4.946480758446	40
97	479	5.119188113894	41
97	584	5.337880642475	41
97	606	5.378227148777	40
97	644	5.39435603235	41
97	666	5.438975129978	40
97	696	5.57053835078	40
97	816	5.890523885861	40
97	846	5.979350229925	40
97	889	6.020810513138	41
97	949	6.449060609271	41
97	964	6.51401807123	41
97	979	6.72632126786	41
97	1016	7.194167944578	40
98	82	3.296243171484	1
98	82	3.296243171484	0
98	95	3.298059171484	1
98	95	3.298059171484	0
98	120	3.662183063326	1
98	120	3.662183063326	0
98	135	3.663975063326	1
98	135	3.663975063326	0
98	216	3.958264013429	1
98	216	3.958264013429	0
98	284	4.313408944975	1
98	284	4.313408944975	0
98	299	4.422510542802	1
98	299	4.422510542802	0
98	381	4.891425367351	1
98	381	4.891425367351	0
98	408	4.946480758446	1
98	408	4.946480758446	0
98	479	5.119188113894	1
98	479	5.119188113894	0
98	584	5.337880642475	1
98	584	5.337880642475	0
98	606	5.378227148777	1
98	606	5.378227148777	0
98	644	5.39435603235	1
98	644	5.39435603235	0
98	666	5.438975129978	1
98	666	5.438975129978	0
98	696	5.57053835078	1
98	696	5.57053835078	0
98	816	5.890523885861	1
98	816	5.890523885861	0
98	846	5.979350229925	1
98	846	5.979350229925	0
98	889	6.020810513138	1
98	889	6.020810513138	0
98	949	6.449060609271	1
98	949	6.449060609271	0
98	964	6.51401807123	1
98	964	6.51401807123	0
98	979	6.72632126786	1
98	979	6.72632126786	0
98	1016	7.194167944578	1
98	1016	7.194167944578	0
99	82	3.296243171484	44
99	95	3.298059171484	41
99	120	3.662183063326	44
99	135	3.663975063326	40
99	216	3.958264013429	40
99	284	4.313408944975	41
99	299	4.422510542802	41
99	381	4.891425367351	40
99	408	4.946480758446	40
99	479	5.119188113894	41
99	584	5.337880642475	41
99	606	5.378227148777	40
99	644	5.39435603235	41
99	666	5.438975129978	40
99	696	5.57053835078	40
99	816	5.890523885861	40
99	846	5.979350229925	40
99	889	6.020810513138	41
99	949	6.449060609271	41
99	964	6.51401807123	41
99	979	6.72632126786	41
99	1016	7.194167944578	40
100	82	3.296243171484	0
100	95	3.298059171484	0
100	120	3.662183063326	0
100	135	3.663975063326	0
100	216	3.958264013429	0
100	284	4.313408944975	0
100	299	4.422510542802	0
100	381	4.891425367351	0
100	408	4.946480758446	0
100	479	5.119188113894	0
100	584	5.337880642475	0
100	606	5.378227148777	0
100	644	5.39435603235	0
100	666	5.438975129978	0
100	696	5.57053835078	0
100	816	5.890523885861	0
100	846	5.979350229925	0
100	889	6.020810513138	0
100	949	6.449060609271	0
100	964	6.51401807123	0
100	979	6.72632126786	0
100	1016	7.194167944578	0
101	82	3.296243171484	51
101	95	3.298059171484	48
101	120	3.662183063326	51
101	135	3.663975063326	47
101	216	3.958264013429	47
101	284	4.313408944975	48
101	299	4.422510542802	48
101	381	4.891425367351	47
101	408	4.946480758446	47
101	479	5.119188113894	48
101	584	5.337880642475	48
101	606	5.378227148777	47
101	644	5.39435603235	48
101	666	5.438975129978	47
101	696	5.57053835078	47
101	816	5.890523885861	47
101	846	5.979350229925	47
101	889	6.020810513138	48
101	949	6.449060609271	48
101	964	6.51401807123	48
101	979	6.72632126786	48
101	1016	7.194167944578	47
102	84	3.297151171484	51
102	97	3.298943171484	48
102	122	3.663091063326	51
102	139	3.664851063326	47
102	218	3.959140013429	47
102	286	4.314292944975	48
102	301	4.423394542802	48
102	383	4.892301367351	47
102	413	4.947356758446	47
102	481	5.120072113894	48
102	586	5.338764642475	48
102	608	5.379103148777	47
102	646	5.39524003235	48
102	668	5.439851129978	47
102	698	5.57141435078	47
102	818	5.891399885861	47
102	848	5.980226229925	47
102	891	6.021694513138	48
102	951	6.449944609271	48
102	966	6.51490207123	48
102	981	6.72720526786	48
102	1018	7.195043944578	47
103	84	3.297151171484	44
103	97	3.298943171484	41
103	122	3.663091063326	44
103	139	3.664851063326	40
103	218	3.959140013429	40
103	286	4.314292944975	41
103	301	4.423394542802	41
103	383	4.892301367351	40
103	413	4.947356758446	40
103	481	5.120072113894	41
103	586	5.338764642475	41
103	608	5.379103148777	40
103	646	5.39524003235	41
103	668	5.439851129978	40
103	698	5.57141435078	40
103	818	5.891399885861	40
103	848	5.980226229925	40
103	891	6.021694513138	41
103	951	6.449944609271	41
103	966	6.51490207123	41
103	981	6.72720526786	41
103	1018	7.195043944578	40
104	86	3.297151171484	831565
104	86	3.297151171484	831565
104	99	3.298943171484	831565
104	288	4.314292944975	831567
104	303	4.423394542802	831568
104	483	5.120072113894	831569
104	588	5.338764642475	831570
104	648	5.39524003235	831571
104	893	6.021694513138	831572
104	953	6.449944609271	831573
104	968	6.51490207123	831574
104	983	6.72720526786	831575
105	86	3.297151171484	7504
105	99	3.298943171484	7504
106	86	3.297151171484	0
106	99	3.298943171484	0
106	99	3.298943171484	1
106	288	4.314292944975	0
106	288	4.314292944975	0
106	303	4.423394542802	0
106	303	4.423394542802	0
106	483	5.120072113894	0
106	483	5.120072113894	0
106	588	5.338764642475	0
106	588	5.338764642475	0
106	648	5.39524003235	0
106	648	5.39524003235	0
106	893	6.021694513138	0
106	893	6.021694513138	0
106	953	6.449944609271	0
106	953	6.449944609271	0
106	968	6.51490207123	0
106	968	6.51490207123	0
106	983	6.72720526786	0
106	983	6.72720526786	0
107	86	3.297151171484	7504
107	99	3.298943171484	7503
107	288	4.314292944975	7504
107	303	4.423394542802	7504
107	483	5.120072113894	7504
107	588	5.338764642475	7504
107	648	5.39524003235	7504
107	893	6.021694513138	7504
107	953	6.449944609271	7504
107	968	6.51490207123	7504
107	983	6.72720526786	7504
108	86	3.297151171484	824061
108	99	3.298943171484	824062
108	288	4.314292944975	824063
108	303	4.423394542802	824064
108	483	5.120072113894	824065
108	588	5.338764642475	824066
108	648	5.39524003235	824067
108	893	6.021694513138	824068
108	953	6.449944609271	824069
108	968	6.51490207123	824070
108	983	6.72720526786	824071
109	88	3.297151171484	44
109	103	3.298943171484	40
109	114	3.661275063326	44
109	127	3.663091063326	41
109	209	3.957380013429	41
109	291	4.314292944975	40
109	306	4.423394542802	40
109	374	4.890541367351	41
109	394	4.945596758446	41
109	486	5.120072113894	40
109	591	5.338764642475	40
109	599	5.377343148777	41
109	651	5.39524003235	40
109	659	5.438091129978	41
109	689	5.56965435078	41
109	809	5.889639885861	41
109	839	5.978466229925	41
109	896	6.021694513138	40
109	956	6.449944609271	40
109	971	6.51490207123	40
109	986	6.72720526786	40
109	1009	7.193283944578	41
110	88	3.297151171484	44
110	103	3.298943171484	40
110	114	3.661275063326	44
110	127	3.663091063326	41
110	209	3.957380013429	41
110	291	4.314292944975	40
110	306	4.423394542802	40
110	374	4.890541367351	41
110	394	4.945596758446	41
110	486	5.120072113894	40
110	591	5.338764642475	40
110	599	5.377343148777	41
110	651	5.39524003235	40
110	659	5.438091129978	41
110	689	5.56965435078	41
110	809	5.889639885861	41
110	839	5.978466229925	41
110	896	6.021694513138	40
110	956	6.449944609271	40
110	971	6.51490207123	40
110	986	6.72720526786	40
110	1009	7.193283944578	41
111	88	3.297151171484	1
111	88	3.297151171484	0
111	103	3.298943171484	1
111	103	3.298943171484	0
111	114	3.661275063326	1
111	114	3.661275063326	0
111	127	3.663091063326	1
111	127	3.663091063326	0
111	209	3.957380013429	1
111	209	3.957380013429	0
111	291	4.314292944975	1
111	291	4.314292944975	0
111	306	4.423394542802	1
111	306	4.423394542802	0
111	374	4.890541367351	1
111	374	4.890541367351	0
111	394	4.945596758446	1
111	394	4.945596758446	0
111	486	5.120072113894	1
111	486	5.120072113894	0
111	591	5.338764642475	1
111	591	5.338764642475	0
111	599	5.377343148777	1
111	599	5.377343148777	0
111	651	5.39524003235	1
111	651	5.39524003235	0
111	659	5.438091129978	1
111	659	5.438091129978	0
111	689	5.56965435078	1
111	689	5.56965435078	0
111	809	5.889639885861	1
111	809	5.889639885861	0
111	839	5.978466229925	1
111	839	5.978466229925	0
111	896	6.021694513138	1
111	896	6.021694513138	0
111	956	6.449944609271	1
111	956	6.449944609271	0
111	971	6.51490207123	1
111	971	6.51490207123	0
111	986	6.72720526786	1
111	986	6.72720526786	0
111	1009	7.193283944578	1
111	1009	7.193283944578	0
112	88	3.297151171484	44
112	103	3.298943171484	40
112	114	3.661275063326	44
112	127	3.663091063326	41
112	209	3.957380013429	41
112	291	4.314292944975	40
112	306	4.423394542802	40
112	374	4.890541367351	41
112	394	4.945596758446	41
112	486	5.120072113894	40
112	591	5.338764642475	40
112	599	5.377343148777	41
112	651	5.39524003235	40
112	659	5.438091129978	41
112	689	5.56965435078	41
112	809	5.889639885861	41
112	839	5.978466229925	41
112	896	6.021694513138	40
112	956	6.449944609271	40
112	971	6.51490207123	40
112	986	6.72720526786	40
112	1009	7.193283944578	41
113	88	3.297151171484	0
113	103	3.298943171484	0
113	114	3.661275063326	0
113	127	3.663091063326	0
113	209	3.957380013429	0
113	291	4.314292944975	0
113	306	4.423394542802	0
113	374	4.890541367351	0
113	394	4.945596758446	0
113	486	5.120072113894	0
113	591	5.338764642475	0
113	599	5.377343148777	0
113	651	5.39524003235	0
113	659	5.438091129978	0
113	689	5.56965435078	0
113	809	5.889639885861	0
113	839	5.978466229925	0
113	896	6.021694513138	0
113	956	6.449944609271	0
113	971	6.51490207123	0
113	986	6.72720526786	0
113	1009	7.193283944578	0
114	88	3.297151171484	51
114	103	3.298943171484	47
114	114	3.661275063326	51
114	127	3.663091063326	48
114	209	3.957380013429	48
114	291	4.314292944975	47
114	306	4.423394542802	47
114	374	4.890541367351	48
114	394	4.945596758446	48
114	486	5.120072113894	47
114	591	5.338764642475	47
114	599	5.377343148777	48
114	651	5.39524003235	47
114	659	5.438091129978	48
114	689	5.56965435078	48
114	809	5.889639885861	48
114	839	5.978466229925	48
114	896	6.021694513138	47
114	956	6.449944609271	47
114	971	6.51490207123	47
114	986	6.72720526786	47
114	1009	7.193283944578	48
115	90	3.298059171484	51
115	107	3.299819171484	47
115	116	3.662183063326	51
115	129	3.663975063326	48
115	211	3.958264013429	48
115	293	4.315168944975	47
115	308	4.424270542802	47
115	376	4.891425367351	48
115	403	4.946480758446	48
115	488	5.120948113894	47
115	593	5.339640642475	47
115	601	5.378227148777	48
115	653	5.39611603235	47
115	661	5.438975129978	48
115	691	5.57053835078	48
115	811	5.890523885861	48
115	841	5.979350229925	48
115	898	6.022570513138	47
115	958	6.450820609271	47
115	973	6.51577807123	47
115	988	6.72808126786	47
115	1011	7.194167944578	48
116	90	3.298059171484	44
116	107	3.299819171484	40
116	116	3.662183063326	44
116	129	3.663975063326	41
116	211	3.958264013429	41
116	293	4.315168944975	40
116	308	4.424270542802	40
116	376	4.891425367351	41
116	403	4.946480758446	41
116	488	5.120948113894	40
116	593	5.339640642475	40
116	601	5.378227148777	41
116	653	5.39611603235	40
116	661	5.438975129978	41
116	691	5.57053835078	41
116	811	5.890523885861	41
116	841	5.979350229925	41
116	898	6.022570513138	40
116	958	6.450820609271	40
116	973	6.51577807123	40
116	988	6.72808126786	40
116	1011	7.194167944578	41
117	92	3.298059171484	824287
117	109	3.299819171484	824288
117	295	4.315168944975	824288
117	310	4.424270542802	824288
117	490	5.120948113894	824288
117	595	5.339640642475	824288
117	655	5.39611603235	824288
117	900	6.022570513138	824288
117	960	6.450820609271	824288
117	975	6.51577807123	824288
117	990	6.72808126786	824288
118	92	3.298059171484	824061
118	109	3.299819171484	824062
118	295	4.315168944975	824063
118	310	4.424270542802	824064
118	490	5.120948113894	824065
118	595	5.339640642475	824066
118	655	5.39611603235	824067
118	900	6.022570513138	824068
118	960	6.450820609271	824069
118	975	6.51577807123	824070
118	990	6.72808126786	824071
119	92	3.298059171484	7504
119	109	3.299819171484	7503
119	295	4.315168944975	7504
119	310	4.424270542802	7504
119	490	5.120948113894	7504
119	595	5.339640642475	7504
119	655	5.39611603235	7504
119	900	6.022570513138	7504
119	960	6.450820609271	7504
119	975	6.51577807123	7504
119	990	6.72808126786	7504
120	92	3.298059171484	1
120	109	3.299819171484	0
120	282	4.313408944975	1
120	295	4.315168944975	0
120	297	4.422510542802	1
120	310	4.424270542802	0
120	477	5.119188113894	1
120	490	5.120948113894	0
120	582	5.337880642475	1
120	595	5.339640642475	0
120	642	5.39435603235	1
120	655	5.39611603235	0
120	887	6.020810513138	1
120	900	6.022570513138	0
120	947	6.449060609271	1
120	960	6.450820609271	0
120	962	6.51401807123	1
120	975	6.51577807123	0
120	977	6.72632126786	1
120	990	6.72808126786	0
121	99	3.298943171484	824061
121	288	4.314292944975	824062
121	303	4.423394542802	824063
121	483	5.120072113894	824064
121	588	5.338764642475	824065
121	648	5.39524003235	824066
121	893	6.021694513138	824067
121	953	6.449944609271	824068
121	968	6.51490207123	824069
121	983	6.72720526786	824070
122	99	3.298943171484	824288
122	288	4.314292944975	824288
122	303	4.423394542802	824288
122	483	5.120072113894	824288
122	588	5.338764642475	824288
122	648	5.39524003235	824288
122	893	6.021694513138	824288
122	953	6.449944609271	824288
122	968	6.51490207123	824288
122	983	6.72720526786	824288
123	99	3.298943171484	0
124	99	3.298943171484	1072
125	99	3.298943171484	4294967295
126	99	3.298943171484	0
126	288	4.314292944975	0
126	303	4.423394542802	0
126	483	5.120072113894	0
126	588	5.338764642475	0
126	648	5.39524003235	0
126	893	6.021694513138	0
126	953	6.449944609271	0
126	968	6.51490207123	0
126	983	6.72720526786	0
127	109	3.299819171484	0.00176
127	295	4.315168944975	0.00176
127	310	4.424270542802	0.00176
127	490	5.120948113894	0.00176
127	595	5.339640642475	0.00176
127	655	5.39611603235	0.00176
127	900	6.022570513138	0.00176
127	960	6.450820609271	0.00176
127	975	6.51577807123	0.00176
127	990	6.72808126786	0.00176
128	109	3.299819171484	0.00022
128	295	4.315168944975	0.0004125
128	310	4.424270542802	0.0005809375
128	490	5.120948113894	0.000728320313
128	595	5.339640642475	0.000857280274
128	655	5.39611603235	0.00097012024
128	900	6.022570513138	0.00106885521
128	960	6.450820609271	0.001155248309
128	975	6.51577807123	0.00123084227
128	990	6.72808126786	0.001296986986
129	109	3.299819171484	0.65647
129	295	4.315168944975	0.57460375
129	310	4.424270542802	0.50294671875
129	490	5.120948113894	0.440225761719
129	595	5.339640642475	0.385326501465
129	655	5.39611603235	0.337273528748
129	900	6.022570513138	0.295213072625
129	960	6.450820609271	0.258397831646
129	975	6.51577807123	0.226173696652
129	990	6.72808126786	0.197968129287
130	109	3.299819171484	2.6261
130	295	4.315168944975	2.2988275
130	310	4.424270542802	2.0123678125
130	490	5.120948113894	1.761631367189
130	595	5.339640642475	1.542163286134
130	655	5.39611603235	1.350064235232
130	900	6.022570513138	1.18192114571
130	960	6.450820609271	1.034746574893
130	975	6.51577807123	1
130	990	6.72808126786	1
131	109	3.299819171484	1072
131	295	4.315168944975	1608
131	310	4.424270542802	2144
131	490	5.120948113894	2680
131	595	5.339640642475	3216
131	655	5.39611603235	3752
131	900	6.022570513138	4288
131	960	6.450820609271	4824
131	975	6.51577807123	5360
131	990	6.72808126786	5896
132	109	3.299819171484	4294967295
132	295	4.315168944975	4294967295
132	310	4.424270542802	4294967295
132	490	5.120948113894	4294967295
132	595	5.339640642475	4294967295
132	655	5.39611603235	4294967295
132	900	6.022570513138	4294967295
132	960	6.450820609271	4294967295
132	975	6.51577807123	4294967295
132	990	6.72808126786	4294967295
133	109	3.299819171484	0
133	295	4.315168944975	0
133	310	4.424270542802	0
133	490	5.120948113894	0
133	595	5.339640642475	0
133	655	5.39611603235	0
133	900	6.022570513138	0
133	960	6.450820609271	0
133	975	6.51577807123	0
133	990	6.72808126786	0
134	111	3.661275063326	0
134	124	3.663091063326	0
134	207	3.957380013429	0
134	372	4.890541367351	0
134	392	4.945596758446	0
134	597	5.377343148777	0
134	657	5.438091129978	0
134	687	5.56965435078	0
134	807	5.889639885861	0
134	837	5.978466229925	0
134	1007	7.193283944578	0
135	111	3.661275063326	7504
135	124	3.663091063326	923050
135	124	3.663091063326	923050
135	207	3.957380013429	923050
135	372	4.890541367351	923050
135	392	4.945596758446	923050
135	597	5.377343148777	923050
135	657	5.438091129978	923050
135	687	5.56965435078	923050
135	807	5.889639885861	923050
135	837	5.978466229925	923050
135	1007	7.193283944578	923050
136	111	3.661275063326	7504
136	124	3.663091063326	7504
136	207	3.957380013429	7504
136	372	4.890541367351	7504
136	392	4.945596758446	7504
136	597	5.377343148777	7504
136	657	5.438091129978	7504
136	687	5.56965435078	7504
136	807	5.889639885861	7504
136	837	5.978466229925	7504
136	1007	7.193283944578	7504
137	111	3.661275063326	0
137	124	3.663091063326	915546
137	207	3.957380013429	915546
137	372	4.890541367351	915546
137	392	4.945596758446	915546
137	597	5.377343148777	915546
137	657	5.438091129978	915546
137	687	5.56965435078	915546
137	807	5.889639885861	915546
137	837	5.978466229925	915546
137	1007	7.193283944578	915546
138	118	3.662183063326	915318
138	150	3.68232527958	920354
139	118	3.662183063326	0
139	150	3.68232527958	0
140	118	3.662183063326	922823
140	118	3.662183063326	922823
140	131	3.663975063326	922823
140	213	3.958264013429	922825
140	378	4.891425367351	922826
140	405	4.946480758446	922827
140	603	5.378227148777	922828
140	663	5.438975129978	922829
140	693	5.57053835078	922830
140	813	5.890523885861	922831
140	843	5.979350229925	922832
140	1013	7.194167944578	922833
141	118	3.662183063326	7504
141	131	3.663975063326	7504
142	118	3.662183063326	0
142	131	3.663975063326	0
142	131	3.663975063326	1
142	213	3.958264013429	0
142	213	3.958264013429	0
142	378	4.891425367351	0
142	378	4.891425367351	0
142	405	4.946480758446	0
142	405	4.946480758446	0
142	603	5.378227148777	0
142	603	5.378227148777	0
142	663	5.438975129978	0
142	663	5.438975129978	0
142	693	5.57053835078	0
142	693	5.57053835078	0
142	813	5.890523885861	0
142	813	5.890523885861	0
142	843	5.979350229925	0
142	843	5.979350229925	0
142	1013	7.194167944578	0
142	1013	7.194167944578	0
143	118	3.662183063326	7504
143	131	3.663975063326	7503
143	213	3.958264013429	7504
143	378	4.891425367351	7504
143	405	4.946480758446	7504
143	603	5.378227148777	7504
143	663	5.438975129978	7504
143	693	5.57053835078	7504
143	813	5.890523885861	7504
143	843	5.979350229925	7504
143	1013	7.194167944578	7504
144	118	3.662183063326	915319
144	131	3.663975063326	915320
144	213	3.958264013429	915321
144	378	4.891425367351	915322
144	405	4.946480758446	915323
144	603	5.378227148777	915324
144	663	5.438975129978	915325
144	693	5.57053835078	915326
144	813	5.890523885861	915327
144	843	5.979350229925	915328
144	1013	7.194167944578	915329
145	124	3.663091063326	915545
145	141	3.664851063326	915546
145	220	3.959140013429	915546
145	385	4.892301367351	915546
145	415	4.947356758446	915546
145	610	5.379103148777	915546
145	670	5.439851129978	915546
[...]
171	779	5.859504043214	48
171	869	5.992533189245	48
171	941	6.360586413525	47
171	1001	6.850926268502	47
172	148	3.68232527958	51
172	161	3.68411727958	48
172	186	3.714209566698	51
172	203	3.715969566698	47
172	248	4.137276553239	47
172	256	4.141283514755	48
172	271	4.309805687307	48
172	409	4.946655869503	47
172	421	4.954675866329	48
172	443	4.977694230414	47
172	473	5.117040707907	47
172	503	5.158132695456	47
172	571	5.29828169097	48
172	616	5.386253516769	48
172	706	5.582548569719	48
172	736	5.641082034119	48
172	758	5.799479172094	47
172	773	5.834346717856	47
172	781	5.860388043214	48
172	871	5.993417189245	48
172	943	6.361462413525	47
172	1003	6.851802268502	47
173	148	3.68232527958	44
173	161	3.68411727958	41
173	186	3.714209566698	44
173	203	3.715969566698	40
173	248	4.137276553239	40
173	256	4.141283514755	41
173	271	4.309805687307	41
173	409	4.946655869503	40
173	421	4.954675866329	41
173	443	4.977694230414	40
173	473	5.117040707907	40
173	503	5.158132695456	40
173	571	5.29828169097	41
173	616	5.386253516769	41
173	706	5.582548569719	41
173	736	5.641082034119	41
173	758	5.799479172094	40
173	773	5.834346717856	40
173	781	5.860388043214	41
173	871	5.993417189245	41
173	943	6.361462413525	40
173	1003	6.851802268502	40
174	150	3.68232527958	927859
174	150	3.68232527958	927859
174	163	3.68411727958	927859
174	258	4.141283514755	927861
174	273	4.309805687307	927862
174	423	4.954675866329	927863
174	573	5.29828169097	927864
174	618	5.386253516769	927865
174	708	5.582548569719	927866
174	738	5.641082034119	927867
174	783	5.860388043214	927868
174	873	5.993417189245	927869
175	150	3.68232527958	7504
175	163	3.68411727958	7504
176	150	3.68232527958	0
176	163	3.68411727958	0
176	163	3.68411727958	1
176	258	4.141283514755	0
176	258	4.141283514755	0
176	273	4.309805687307	0
176	273	4.309805687307	0
176	423	4.954675866329	0
176	423	4.954675866329	0
176	573	5.29828169097	0
176	573	5.29828169097	0
176	618	5.386253516769	0
176	618	5.386253516769	0
176	708	5.582548569719	0
176	708	5.582548569719	0
176	738	5.641082034119	0
176	738	5.641082034119	0
176	783	5.860388043214	0
176	783	5.860388043214	0
176	873	5.993417189245	0
176	873	5.993417189245	0
177	150	3.68232527958	7504
177	163	3.68411727958	7503
177	258	4.141283514755	7504
177	273	4.309805687307	7504
177	423	4.954675866329	7504
177	573	5.29828169097	7504
177	618	5.386253516769	7504
177	708	5.582548569719	7504
177	738	5.641082034119	7504
177	783	5.860388043214	7504
177	873	5.993417189245	7504
178	150	3.68232527958	920355
178	163	3.68411727958	920356
178	258	4.141283514755	920357
178	273	4.309805687307	920358
178	423	4.954675866329	920359
178	573	5.29828169097	920360
178	618	5.386253516769	920361
178	708	5.582548569719	920362
178	738	5.641082034119	920363
178	783	5.860388043214	920364
178	873	5.993417189245	920365
179	152	3.68232527958	44
179	167	3.68411727958	40
179	178	3.712393566698	44
179	191	3.714209566698	41
179	239	4.135516553239	41
179	261	4.141283514755	40
179	276	4.309805687307	40
179	389	4.944895869503	41
179	426	4.954675866329	40
179	434	4.975934230414	41
179	464	5.115280707907	41
179	494	5.156372695456	41
179	576	5.29828169097	40
179	621	5.386253516769	40
179	711	5.582548569719	40
179	741	5.641082034119	40
179	749	5.797719172094	41
179	764	5.832586717856	41
179	786	5.860388043214	40
179	876	5.993417189245	40
179	934	6.359702413525	41
179	994	6.850042268502	41
180	152	3.68232527958	44
180	167	3.68411727958	40
180	178	3.712393566698	44
180	191	3.714209566698	41
180	239	4.135516553239	41
180	261	4.141283514755	40
180	276	4.309805687307	40
180	389	4.944895869503	41
180	426	4.954675866329	40
180	434	4.975934230414	41
180	464	5.115280707907	41
180	494	5.156372695456	41
180	576	5.29828169097	40
180	621	5.386253516769	40
180	711	5.582548569719	40
180	741	5.641082034119	40
180	749	5.797719172094	41
180	764	5.832586717856	41
180	786	5.860388043214	40
180	876	5.993417189245	40
180	934	6.359702413525	41
180	994	6.850042268502	41
181	152	3.68232527958	1
181	152	3.68232527958	0
181	167	3.68411727958	1
181	167	3.68411727958	0
181	178	3.712393566698	1
181	178	3.712393566698	0
181	191	3.714209566698	1
181	191	3.714209566698	0
181	239	4.135516553239	1
181	239	4.135516553239	0
181	261	4.141283514755	1
181	261	4.141283514755	0
181	276	4.309805687307	1
181	276	4.309805687307	0
181	389	4.944895869503	1
181	389	4.944895869503	0
181	426	4.954675866329	1
181	426	4.954675866329	0
181	434	4.975934230414	1
181	434	4.975934230414	0
181	464	5.115280707907	1
181	464	5.115280707907	0
181	494	5.156372695456	1
181	494	5.156372695456	0
181	576	5.29828169097	1
181	576	5.29828169097	0
181	621	5.386253516769	1
181	621	5.386253516769	0
181	711	5.582548569719	1
181	711	5.582548569719	0
181	741	5.641082034119	1
181	741	5.641082034119	0
181	749	5.797719172094	1
181	749	5.797719172094	0
181	764	5.832586717856	1
181	764	5.832586717856	0
181	786	5.860388043214	1
181	786	5.860388043214	0
181	876	5.993417189245	1
181	876	5.993417189245	0
181	934	6.359702413525	1
181	934	6.359702413525	0
181	994	6.850042268502	1
181	994	6.850042268502	0
182	152	3.68232527958	44
182	167	3.68411727958	40
182	178	3.712393566698	44
182	191	3.714209566698	41
182	239	4.135516553239	41
182	261	4.141283514755	40
182	276	4.309805687307	40
182	389	4.944895869503	41
182	426	4.954675866329	40
182	434	4.975934230414	41
182	464	5.115280707907	41
182	494	5.156372695456	41
182	576	5.29828169097	40
182	621	5.386253516769	40
182	711	5.582548569719	40
182	741	5.641082034119	40
182	749	5.797719172094	41
182	764	5.832586717856	41
182	786	5.860388043214	40
182	876	5.993417189245	40
182	934	6.359702413525	41
182	994	6.850042268502	41
183	152	3.68232527958	0
183	167	3.68411727958	0
183	178	3.712393566698	0
183	191	3.714209566698	0
183	239	4.135516553239	0
183	261	4.141283514755	0
183	276	4.309805687307	0
183	389	4.944895869503	0
183	426	4.954675866329	0
183	434	4.975934230414	0
183	464	5.115280707907	0
183	494	5.156372695456	0
183	576	5.29828169097	0
183	621	5.386253516769	0
183	711	5.582548569719	0
183	741	5.641082034119	0
183	749	5.797719172094	0
183	764	5.832586717856	0
183	786	5.860388043214	0
183	876	5.993417189245	0
183	934	6.359702413525	0
183	994	6.850042268502	0
184	152	3.68232527958	51
184	167	3.68411727958	47
184	178	3.712393566698	51
184	191	3.714209566698	48
184	239	4.135516553239	48
184	261	4.141283514755	47
184	276	4.309805687307	47
184	389	4.944895869503	48
184	426	4.954675866329	47
184	434	4.975934230414	48
184	464	5.115280707907	48
184	494	5.156372695456	48
184	576	5.29828169097	47
184	621	5.386253516769	47
184	711	5.582548569719	47
184	741	5.641082034119	47
184	749	5.797719172094	48
184	764	5.832586717856	48
184	786	5.860388043214	47
184	876	5.993417189245	47
184	934	6.359702413525	48
184	994	6.850042268502	48
185	154	3.68323327958	51
185	171	3.68499327958	47
185	180	3.713301566698	51
185	193	3.715093566698	48
185	241	4.136400553239	48
185	263	4.142159514755	47
185	278	4.310681687307	47
185	395	4.945779869503	48
185	428	4.955551866329	47
185	436	4.976818230414	48
185	466	5.116164707907	48
185	496	5.157256695456	48
185	578	5.29915769097	47
185	623	5.387129516769	47
185	713	5.583424569719	47
185	743	5.641958034119	47
185	751	5.798603172094	48
185	766	5.833470717856	48
185	788	5.861264043214	47
185	878	5.994293189245	47
185	936	6.360586413525	48
185	996	6.850926268502	48
186	154	3.68323327958	44
186	171	3.68499327958	40
186	180	3.713301566698	44
186	193	3.715093566698	41
186	241	4.136400553239	41
186	263	4.142159514755	40
186	278	4.310681687307	40
186	395	4.945779869503	41
186	428	4.955551866329	40
186	436	4.976818230414	41
186	466	5.116164707907	41
186	496	5.157256695456	41
186	578	5.29915769097	40
186	623	5.387129516769	40
186	713	5.583424569719	40
186	743	5.641958034119	40
186	751	5.798603172094	41
186	766	5.833470717856	41
186	788	5.861264043214	40
186	878	5.994293189245	40
186	936	6.360586413525	41
186	996	6.850926268502	41
187	156	3.68323327958	920581
187	173	3.68499327958	920582
187	265	4.142159514755	920582
187	280	4.310681687307	920582
187	430	4.955551866329	920582
187	580	5.29915769097	920582
187	625	5.387129516769	920582
187	715	5.583424569719	920582
187	745	5.641958034119	920582
187	790	5.861264043214	920582
187	880	5.994293189245	920582
188	156	3.68323327958	920355
188	173	3.68499327958	920356
188	265	4.142159514755	920357
188	280	4.310681687307	920358
188	430	4.955551866329	920359
188	580	5.29915769097	920360
188	625	5.387129516769	920361
188	715	5.583424569719	920362
188	745	5.641958034119	920363
188	790	5.861264043214	920364
188	880	5.994293189245	920365
189	156	3.68323327958	7504
189	173	3.68499327958	7503
189	265	4.142159514755	7504
189	280	4.310681687307	7504
189	430	4.955551866329	7504
189	580	5.29915769097	7504
189	625	5.387129516769	7504
189	715	5.583424569719	7504
189	745	5.641958034119	7504
189	790	5.861264043214	7504
189	880	5.994293189245	7504
190	156	3.68323327958	1
190	173	3.68499327958	0
190	252	4.140399514755	1
190	265	4.142159514755	0
190	267	4.308921687307	1
190	280	4.310681687307	0
190	417	4.953791866329	1
190	430	4.955551866329	0
190	567	5.29739769097	1
190	580	5.29915769097	0
190	612	5.385369516769	1
190	625	5.387129516769	0
190	702	5.581664569719	1
190	715	5.583424569719	0
190	732	5.640198034119	1
190	745	5.641958034119	0
190	777	5.859504043214	1
190	790	5.861264043214	0
190	867	5.992533189245	1
190	880	5.994293189245	0
191	163	3.68411727958	920355
191	258	4.141283514755	920356
191	273	4.309805687307	920357
191	423	4.954675866329	920358
191	573	5.29828169097	920359
191	618	5.386253516769	920360
191	708	5.582548569719	920361
191	738	5.641082034119	920362
191	783	5.860388043214	920363
191	873	5.993417189245	920364
192	163	3.68411727958	920582
192	258	4.141283514755	920582
192	273	4.309805687307	920582
192	423	4.954675866329	920582
192	573	5.29828169097	920582
192	618	5.386253516769	920582
192	708	5.582548569719	920582
192	738	5.641082034119	920582
192	783	5.860388043214	920582
192	873	5.993417189245	920582
193	163	3.68411727958	0
194	163	3.68411727958	1072
195	163	3.68411727958	4294967295
196	163	3.68411727958	0
196	258	4.141283514755	0
196	273	4.309805687307	0
196	423	4.954675866329	0
196	573	5.29828169097	0
196	618	5.386253516769	0
196	708	5.582548569719	0
196	738	5.641082034119	0
196	783	5.860388043214	0
196	873	5.993417189245	0
197	173	3.68499327958	0.00176
197	265	4.142159514755	0.00176
197	280	4.310681687307	0.00176
197	430	4.955551866329	0.00176
197	580	5.29915769097	0.00176
197	625	5.387129516769	0.00176
197	715	5.583424569719	0.00176
197	745	5.641958034119	0.00176
197	790	5.861264043214	0.00176
197	880	5.994293189245	0.00176
198	173	3.68499327958	0.00022
198	265	4.142159514755	0.0004125
198	280	4.310681687307	0.0005809375
198	430	4.955551866329	0.000728320313
198	580	5.29915769097	0.000857280274
198	625	5.387129516769	0.00097012024
198	715	5.583424569719	0.00106885521
198	745	5.641958034119	0.001155248309
198	790	5.861264043214	0.00123084227
198	880	5.994293189245	0.001296986986
199	173	3.68499327958	0.65647
199	265	4.142159514755	0.57460375
199	280	4.310681687307	0.50294671875
199	430	4.955551866329	0.440225761719
199	580	5.29915769097	0.385326501465
199	625	5.387129516769	0.337273528748
199	715	5.583424569719	0.295213072625
199	745	5.641958034119	0.258397831646
199	790	5.861264043214	0.226173696652
199	880	5.994293189245	0.197968129287
200	173	3.68499327958	2.6261
200	265	4.142159514755	2.2988275
200	280	4.310681687307	2.0123678125
200	430	4.955551866329	1.761631367189
200	580	5.29915769097	1.542163286134
200	625	5.387129516769	1.350064235232
200	715	5.583424569719	1.18192114571
200	745	5.641958034119	1.034746574893
200	790	5.861264043214	1
200	880	5.994293189245	1
201	173	3.68499327958	1072
201	265	4.142159514755	1608
201	280	4.310681687307	2144
201	430	4.955551866329	2680
201	580	5.29915769097	3216
201	625	5.387129516769	3752
201	715	5.583424569719	4288
201	745	5.641958034119	4824
201	790	5.861264043214	5360
201	880	5.994293189245	5896
202	173	3.68499327958	4294967295
202	265	4.142159514755	4294967295
202	280	4.310681687307	4294967295
202	430	4.955551866329	4294967295
202	580	5.29915769097	4294967295
202	625	5.387129516769	4294967295
202	715	5.583424569719	4294967295
202	745	5.641958034119	4294967295
202	790	5.861264043214	4294967295
202	880	5.994293189245	4294967295
203	173	3.68499327958	0
203	265	4.142159514755	0
203	280	4.310681687307	0
203	430	4.955551866329	0
203	580	5.29915769097	0
203	625	5.387129516769	0
203	715	5.583424569719	0
203	745	5.641958034119	0
203	790	5.861264043214	0
203	880	5.994293189245	0
204	175	3.712393566698	0
204	188	3.714209566698	0
204	237	4.135516553239	0
204	387	4.944895869503	0
204	432	4.975934230414	0
204	462	5.115280707907	0
204	492	5.156372695456	0
204	747	5.797719172094	0
204	762	5.832586717856	0
204	932	6.359702413525	0
204	992	6.850042268502	0
205	175	3.712393566698	7504
205	188	3.714209566698	935830
205	188	3.714209566698	935830
205	237	4.135516553239	935830
205	387	4.944895869503	935830
205	432	4.975934230414	935830
205	462	5.115280707907	935830
205	492	5.156372695456	935830
205	747	5.797719172094	935830
205	762	5.832586717856	935830
205	932	6.359702413525	935830
205	992	6.850042268502	935830
206	175	3.712393566698	7504
206	188	3.714209566698	7504
206	237	4.135516553239	7504
206	387	4.944895869503	7504
206	432	4.975934230414	7504
206	462	5.115280707907	7504
206	492	5.156372695456	7504
206	747	5.797719172094	7504
206	762	5.832586717856	7504
206	932	6.359702413525	7504
206	992	6.850042268502	7504
207	175	3.712393566698	0
207	188	3.714209566698	928326
207	237	4.135516553239	928326
207	387	4.944895869503	928326
207	432	4.975934230414	928326
207	462	5.115280707907	928326
207	492	5.156372695456	928326
207	747	5.797719172094	928326
207	762	5.832586717856	928326
207	932	6.359702413525	928326
207	992	6.850042268502	928326
208	182	3.713301566698	935603
208	182	3.713301566698	935603
208	195	3.715093566698	935603
208	243	4.136400553239	935605
208	397	4.945779869503	935606
208	438	4.976818230414	935607
208	468	5.116164707907	935608
208	498	5.157256695456	935609
208	753	5.798603172094	935610
208	768	5.833470717856	935611
208	938	6.360586413525	935612
208	998	6.850926268502	935613
209	182	3.713301566698	7504
209	195	3.715093566698	7504
210	182	3.713301566698	0
210	195	3.715093566698	0
210	195	3.715093566698	1
210	243	4.136400553239	0
210	243	4.136400553239	0
210	397	4.945779869503	0
210	397	4.945779869503	0
210	438	4.976818230414	0
210	438	4.976818230414	0
210	468	5.116164707907	0
210	468	5.116164707907	0
210	498	5.157256695456	0
210	498	5.157256695456	0
210	753	5.798603172094	0
210	753	5.798603172094	0
210	768	5.833470717856	0
210	768	5.833470717856	0
210	938	6.360586413525	0
210	938	6.360586413525	0
210	998	6.850926268502	0
210	998	6.850926268502	0
211	182	3.713301566698	7504
211	195	3.715093566698	7503
211	243	4.136400553239	7504
211	397	4.945779869503	7504
211	438	4.976818230414	7504
211	468	5.116164707907	7504
211	498	5.157256695456	7504
211	753	5.798603172094	7504
211	768	5.833470717856	7504
211	938	6.360586413525	7504
211	998	6.850926268502	7504
212	182	3.713301566698	928099
212	195	3.715093566698	928100
212	243	4.136400553239	928101
212	397	4.945779869503	928102
212	438	4.976818230414	928103
212	468	5.116164707907	928104
212	498	5.157256695456	928105
212	753	5.798603172094	928106
212	768	5.833470717856	928107
212	938	6.360586413525	928108
212	998	6.850926268502	928109
213	188	3.714209566698	928325
213	205	3.715969566698	928326
213	250	4.137276553239	928326
213	411	4.946655869503	928326
213	445	4.977694230414	928326
213	475	5.117040707907	928326
213	505	5.158132695456	928326
213	760	5.799479172094	928326
213	775	5.834346717856	928326
213	945	6.361462413525	928326
213	1005	6.851802268502	928326
214	188	3.714209566698	928099
214	205	3.715969566698	928100
214	250	4.137276553239	928101
214	411	4.946655869503	928102
214	445	4.977694230414	928103
214	475	5.117040707907	928104
214	505	5.158132695456	928105
214	760	5.799479172094	928106
214	775	5.834346717856	928107
214	945	6.361462413525	928108
214	1005	6.851802268502	928109
215	188	3.714209566698	7504
215	205	3.715969566698	7503
215	250	4.137276553239	7504
215	411	4.946655869503	7504
215	445	4.977694230414	7504
215	475	5.117040707907	7504
215	505	5.158132695456	7504
215	760	5.799479172094	7504
215	775	5.834346717856	7504
215	945	6.361462413525	7504
215	1005	6.851802268502	7504
216	188	3.714209566698	1
216	205	3.715969566698	0
216	237	4.135516553239	1
216	250	4.137276553239	0
216	387	4.944895869503	1
216	411	4.946655869503	0
216	432	4.975934230414	1
216	445	4.977694230414	0
216	462	5.115280707907	1
216	475	5.117040707907	0
216	492	5.156372695456	1
216	505	5.158132695456	0
216	747	5.797719172094	1
216	760	5.799479172094	0
216	762	5.832586717856	1
216	775	5.834346717856	0
216	932	6.359702413525	1
216	945	6.361462413525	0
216	992	6.850042268502	1
216	1005	6.851802268502	0
217	195	3.715093566698	928099
217	243	4.136400553239	928100
217	397	4.945779869503	928101
217	438	4.976818230414	928102
217	468	5.116164707907	928103
217	498	5.157256695456	928104
217	753	5.798603172094	928105
217	768	5.833470717856	928106
217	938	6.360586413525	928107
217	998	6.850926268502	928108
218	195	3.715093566698	928326
218	243	4.136400553239	928326
218	397	4.945779869503	928326
218	438	4.976818230414	928326
218	468	5.116164707907	928326
218	498	5.157256695456	928326
218	753	5.798603172094	928326
218	768	5.833470717856	928326
218	938	6.360586413525	928326
218	998	6.850926268502	928326
219	195	3.715093566698	0
220	195	3.715093566698	1072
221	195	3.715093566698	4294967295
222	195	3.715093566698	0
222	243	4.136400553239	0
222	397	4.945779869503	0
222	438	4.976818230414	0
222	468	5.116164707907	0
222	498	5.157256695456	0
222	753	5.798603172094	0
222	768	5.833470717856	0
222	938	6.360586413525	0
222	998	6.850926268502	0
223	205	3.715969566698	0.00176
223	250	4.137276553239	0.00176
223	411	4.946655869503	0.00176
223	445	4.977694230414	0.00176
223	475	5.117040707907	0.00176
223	505	5.158132695456	0.00176
223	760	5.799479172094	0.00176
223	775	5.834346717856	0.00176
223	945	6.361462413525	0.00176
223	1005	6.851802268502	0.00176
224	205	3.715969566698	0.00022
224	250	4.137276553239	0.0004125
224	411	4.946655869503	0.0005809375
224	445	4.977694230414	0.000728320313
224	475	5.117040707907	0.000857280274
224	505	5.158132695456	0.00097012024
224	760	5.799479172094	0.00106885521
224	775	5.834346717856	0.001155248309
224	945	6.361462413525	0.00123084227
224	1005	6.851802268502	0.001296986986
225	205	3.715969566698	0.65647
225	250	4.137276553239	0.57460375
225	411	4.946655869503	0.50294671875
225	445	4.977694230414	0.440225761719
225	475	5.117040707907	0.385326501465
225	505	5.158132695456	0.337273528748
225	760	5.799479172094	0.295213072625
225	775	5.834346717856	0.258397831646
225	945	6.361462413525	0.226173696652
225	1005	6.851802268502	0.197968129287
226	205	3.715969566698	2.6261
226	250	4.137276553239	2.2988275
226	411	4.946655869503	2.0123678125
226	445	4.977694230414	1.761631367189
226	475	5.117040707907	1.542163286134
226	505	5.158132695456	1.350064235232
226	760	5.799479172094	1.18192114571
226	775	5.834346717856	1.034746574893
226	945	6.361462413525	1
226	1005	6.851802268502	1
227	205	3.715969566698	1072
227	250	4.137276553239	1608
227	411	4.946655869503	2144
227	445	4.977694230414	2680
227	475	5.117040707907	3216
227	505	5.158132695456	3752
227	760	5.799479172094	4288
227	775	5.834346717856	4824
227	945	6.361462413525	5360
227	1005	6.851802268502	5896
228	205	3.715969566698	4294967295
228	250	4.137276553239	4294967295
228	411	4.946655869503	4294967295
228	445	4.977694230414	4294967295
228	475	5.117040707907	4294967295
228	505	5.158132695456	4294967295
228	760	5.799479172094	4294967295
228	775	5.834346717856	4294967295
228	945	6.361462413525	4294967295
228	1005	6.851802268502	4294967295
229	205	3.715969566698	0
229	250	4.137276553239	0
229	411	4.946655869503	0
229	445	4.977694230414	0
229	475	5.117040707907	0
229	505	5.158132695456	0
229	760	5.799479172094	0
229	775	5.834346717856	0
229	945	6.361462413525	0
229	1005	6.851802268502	0

