version 2
run BROADCAST10-0-20220131-16:22:43-6656
attr configname BROADCAST10
attr datetime 20220131-16:22:43
attr experiment BROADCAST10
attr inifile omnetpp.ini
attr iterationvars ""
attr iterationvarsf ""
attr measurement ""
attr network scenario
attr processid 6656
attr repetition 0
attr replication #0
attr resultdir results
attr runnumber 0
attr seedset 0
param *.n 10
param **.client[*].app[0].nPar 10
param **.client[*].app[0].nNPar 2
param **.client[5].app[0].leave 1.0
param **.client[6].app[0].leave 2.0
param **.client[7].app[0].leave 0
param **.client[8].app[0].join 1.5
param **.client[9].app[0].join 2.3
param **.client[8].app[0].broadcast 1.3
param **.client[0].app[0].broadcast 1.8
param **.client[1].app[0].broadcast 2.1
param **.ppp[*].ppp.queue.typename "\"DropTailQueue\""
param **.tcp.typename "\"Tcp\""
param **.tcp.nagleEnabled false
param **.client[*].app[*].fPar 0
param **.numApps 1
param **.client[*].app[*].typename "\"Node\""
param **.client[*].app[0].localPort index+1000
param **.client[*].app[0].localPortL 1234
param **.client[*].app[0].connectAddress "\"\""
param **.client[*].app[0].connectPort 1234

vector 0 scenario.client[0].ppp[0].ppp transmissionState:vector ETV
attr interpolationmode sample-hold
attr source transmissionStateChanged
attr title "tx state, vector"
vector 1 scenario.client[0].ppp[1].ppp transmissionState:vector ETV
attr interpolationmode sample-hold
attr source transmissionStateChanged
attr title "tx state, vector"
vector 2 scenario.client[0].ppp[2].ppp transmissionState:vector ETV
attr interpolationmode sample-hold
attr source transmissionStateChanged
attr title "tx state, vector"
vector 3 scenario.client[0].ppp[3].ppp transmissionState:vector ETV
attr interpolationmode sample-hold
attr source transmissionStateChanged
attr title "tx state, vector"
vector 4 scenario.client[0].ppp[4].ppp transmissionState:vector ETV
attr interpolationmode sample-hold
attr source transmissionStateChanged
attr title "tx state, vector"
vector 5 scenario.client[0].ppp[5].ppp transmissionState:vector ETV
attr interpolationmode sample-hold
attr source transmissionStateChanged
attr title "tx state, vector"
vector 6 scenario.client[0].ppp[6].ppp transmissionState:vector ETV
attr interpolationmode sample-hold
attr source transmissionStateChanged
attr title "tx state, vector"
vector 7 scenario.client[0].ppp[7].ppp transmissionState:vector ETV
attr interpolationmode sample-hold
attr source transmissionStateChanged
attr title "tx state, vector"
vector 8 scenario.client[0].ppp[8].ppp transmissionState:vector ETV
attr interpolationmode sample-hold
attr source transmissionStateChanged
attr title "tx state, vector"
vector 9 scenario.client[1].ppp[0].ppp transmissionState:vector ETV
attr interpolationmode sample-hold
attr source transmissionStateChanged
attr title "tx state, vector"
vector 10 scenario.client[1].ppp[1].ppp transmissionState:vector ETV
attr interpolationmode sample-hold
attr source transmissionStateChanged
attr title "tx state, vector"
vector 11 scenario.client[1].ppp[2].ppp transmissionState:vector ETV
attr interpolationmode sample-hold
attr source transmissionStateChanged
attr title "tx state, vector"
vector 12 scenario.client[1].ppp[3].ppp transmissionState:vector ETV
attr interpolationmode sample-hold
attr source transmissionStateChanged
attr title "tx state, vector"
vector 13 scenario.client[1].ppp[4].ppp transmissionState:vector ETV
attr interpolationmode sample-hold
attr source transmissionStateChanged
attr title "tx state, vector"
vector 14 scenario.client[1].ppp[5].ppp transmissionState:vector ETV
attr interpolationmode sample-hold
attr source transmissionStateChanged
attr title "tx state, vector"
vector 15 scenario.client[1].ppp[6].ppp transmissionState:vector ETV
attr interpolationmode sample-hold
attr source transmissionStateChanged
attr title "tx state, vector"
vector 16 scenario.client[1].ppp[7].ppp transmissionState:vector ETV
attr interpolationmode sample-hold
attr source transmissionStateChanged
attr title "tx state, vector"
vector 17 scenario.client[1].ppp[8].ppp transmissionState:vector ETV
attr interpolationmode sample-hold
attr source transmissionStateChanged
attr title "tx state, vector"
vector 18 scenario.client[2].ppp[0].ppp transmissionState:vector ETV
attr interpolationmode sample-hold
attr source transmissionStateChanged
attr title "tx state, vector"
vector 19 scenario.client[2].ppp[1].ppp transmissionState:vector ETV
attr interpolationmode sample-hold
attr source transmissionStateChanged
attr title "tx state, vector"
vector 20 scenario.client[2].ppp[2].ppp transmissionState:vector ETV
attr interpolationmode sample-hold
attr source transmissionStateChanged
attr title "tx state, vector"
vector 21 scenario.client[2].ppp[3].ppp transmissionState:vector ETV
attr interpolationmode sample-hold
attr source transmissionStateChanged
attr title "tx state, vector"
vector 22 scenario.client[2].ppp[4].ppp transmissionState:vector ETV
attr interpolationmode sample-hold
attr source transmissionStateChanged
attr title "tx state, vector"
vector 23 scenario.client[2].ppp[5].ppp transmissionState:vector ETV
attr interpolationmode sample-hold
attr source transmissionStateChanged
attr title "tx state, vector"
vector 24 scenario.client[2].ppp[6].ppp transmissionState:vector ETV
attr interpolationmode sample-hold
attr source transmissionStateChanged
attr title "tx state, vector"
vector 25 scenario.client[2].ppp[7].ppp transmissionState:vector ETV
attr interpolationmode sample-hold
attr source transmissionStateChanged
attr title "tx state, vector"
vector 26 scenario.client[2].ppp[8].ppp transmissionState:vector ETV
attr interpolationmode sample-hold
attr source transmissionStateChanged
attr title "tx state, vector"
vector 27 scenario.client[3].ppp[0].ppp transmissionState:vector ETV
attr interpolationmode sample-hold
attr source transmissionStateChanged
attr title "tx state, vector"
vector 28 scenario.client[3].ppp[1].ppp transmissionState:vector ETV
attr interpolationmode sample-hold
attr source transmissionStateChanged
attr title "tx state, vector"
vector 29 scenario.client[3].ppp[2].ppp transmissionState:vector ETV
attr interpolationmode sample-hold
attr source transmissionStateChanged
attr title "tx state, vector"
vector 30 scenario.client[3].ppp[3].ppp transmissionState:vector ETV
attr interpolationmode sample-hold
attr source transmissionStateChanged
attr title "tx state, vector"
vector 31 scenario.client[3].ppp[4].ppp transmissionState:vector ETV
attr interpolationmode sample-hold
attr source transmissionStateChanged
attr title "tx state, vector"
vector 32 scenario.client[3].ppp[5].ppp transmissionState:vector ETV
attr interpolationmode sample-hold
attr source transmissionStateChanged
attr title "tx state, vector"
vector 33 scenario.client[3].ppp[6].ppp transmissionState:vector ETV
attr interpolationmode sample-hold
attr source transmissionStateChanged
attr title "tx state, vector"
vector 34 scenario.client[3].ppp[7].ppp transmissionState:vector ETV
attr interpolationmode sample-hold
attr source transmissionStateChanged
attr title "tx state, vector"
vector 35 scenario.client[3].ppp[8].ppp transmissionState:vector ETV
attr interpolationmode sample-hold
attr source transmissionStateChanged
attr title "tx state, vector"
vector 36 scenario.client[4].ppp[0].ppp transmissionState:vector ETV
attr interpolationmode sample-hold
attr source transmissionStateChanged
attr title "tx state, vector"
vector 37 scenario.client[4].ppp[1].ppp transmissionState:vector ETV
attr interpolationmode sample-hold
attr source transmissionStateChanged
attr title "tx state, vector"
vector 38 scenario.client[4].ppp[2].ppp transmissionState:vector ETV
attr interpolationmode sample-hold
attr source transmissionStateChanged
attr title "tx state, vector"
vector 39 scenario.client[4].ppp[3].ppp transmissionState:vector ETV
attr interpolationmode sample-hold
attr source transmissionStateChanged
attr title "tx state, vector"
vector 40 scenario.client[4].ppp[4].ppp transmissionState:vector ETV
attr interpolationmode sample-hold
attr source transmissionStateChanged
attr title "tx state, vector"
vector 41 scenario.client[4].ppp[5].ppp transmissionState:vector ETV
attr interpolationmode sample-hold
attr source transmissionStateChanged
attr title "tx state, vector"
vector 42 scenario.client[4].ppp[6].ppp transmissionState:vector ETV
attr interpolationmode sample-hold
attr source transmissionStateChanged
attr title "tx state, vector"
vector 43 scenario.client[4].ppp[7].ppp transmissionState:vector ETV
attr interpolationmode sample-hold
attr source transmissionStateChanged
attr title "tx state, vector"
vector 44 scenario.client[4].ppp[8].ppp transmissionState:vector ETV
attr interpolationmode sample-hold
attr source transmissionStateChanged
attr title "tx state, vector"
vector 45 scenario.client[5].ppp[0].ppp transmissionState:vector ETV
attr interpolationmode sample-hold
attr source transmissionStateChanged
attr title "tx state, vector"
vector 46 scenario.client[5].ppp[1].ppp transmissionState:vector ETV
attr interpolationmode sample-hold
attr source transmissionStateChanged
attr title "tx state, vector"
vector 47 scenario.client[5].ppp[2].ppp transmissionState:vector ETV
attr interpolationmode sample-hold
attr source transmissionStateChanged
attr title "tx state, vector"
vector 48 scenario.client[5].ppp[3].ppp transmissionState:vector ETV
attr interpolationmode sample-hold
attr source transmissionStateChanged
attr title "tx state, vector"
vector 49 scenario.client[5].ppp[4].ppp transmissionState:vector ETV
attr interpolationmode sample-hold
attr source transmissionStateChanged
attr title "tx state, vector"
vector 50 scenario.client[5].ppp[5].ppp transmissionState:vector ETV
attr interpolationmode sample-hold
attr source transmissionStateChanged
attr title "tx state, vector"
vector 51 scenario.client[5].ppp[6].ppp transmissionState:vector ETV
attr interpolationmode sample-hold
attr source transmissionStateChanged
attr title "tx state, vector"
vector 52 scenario.client[5].ppp[7].ppp transmissionState:vector ETV
attr interpolationmode sample-hold
attr source transmissionStateChanged
attr title "tx state, vector"
vector 53 scenario.client[5].ppp[8].ppp transmissionState:vector ETV
attr interpolationmode sample-hold
attr source transmissionStateChanged
attr title "tx state, vector"
vector 54 scenario.client[6].ppp[0].ppp transmissionState:vector ETV
attr interpolationmode sample-hold
attr source transmissionStateChanged
attr title "tx state, vector"
vector 55 scenario.client[6].ppp[1].ppp transmissionState:vector ETV
attr interpolationmode sample-hold
attr source transmissionStateChanged
attr title "tx state, vector"
vector 56 scenario.client[6].ppp[2].ppp transmissionState:vector ETV
attr interpolationmode sample-hold
attr source transmissionStateChanged
attr title "tx state, vector"
vector 57 scenario.client[6].ppp[3].ppp transmissionState:vector ETV
attr interpolationmode sample-hold
attr source transmissionStateChanged
attr title "tx state, vector"
vector 58 scenario.client[6].ppp[4].ppp transmissionState:vector ETV
attr interpolationmode sample-hold
attr source transmissionStateChanged
attr title "tx state, vector"
vector 59 scenario.client[6].ppp[5].ppp transmissionState:vector ETV
attr interpolationmode sample-hold
attr source transmissionStateChanged
attr title "tx state, vector"
vector 60 scenario.client[6].ppp[6].ppp transmissionState:vector ETV
attr interpolationmode sample-hold
attr source transmissionStateChanged
attr title "tx state, vector"
vector 61 scenario.client[6].ppp[7].ppp transmissionState:vector ETV
attr interpolationmode sample-hold
attr source transmissionStateChanged
attr title "tx state, vector"
vector 62 scenario.client[6].ppp[8].ppp transmissionState:vector ETV
attr interpolationmode sample-hold
attr source transmissionStateChanged
attr title "tx state, vector"
vector 63 scenario.client[7].ppp[0].ppp transmissionState:vector ETV
attr interpolationmode sample-hold
attr source transmissionStateChanged
attr title "tx state, vector"
vector 64 scenario.client[7].ppp[1].ppp transmissionState:vector ETV
attr interpolationmode sample-hold
attr source transmissionStateChanged
attr title "tx state, vector"
vector 65 scenario.client[7].ppp[2].ppp transmissionState:vector ETV
attr interpolationmode sample-hold
attr source transmissionStateChanged
attr title "tx state, vector"
vector 66 scenario.client[7].ppp[3].ppp transmissionState:vector ETV
attr interpolationmode sample-hold
attr source transmissionStateChanged
attr title "tx state, vector"
vector 67 scenario.client[7].ppp[4].ppp transmissionState:vector ETV
attr interpolationmode sample-hold
attr source transmissionStateChanged
attr title "tx state, vector"
vector 68 scenario.client[7].ppp[5].ppp transmissionState:vector ETV
attr interpolationmode sample-hold
attr source transmissionStateChanged
attr title "tx state, vector"
vector 69 scenario.client[7].ppp[6].ppp transmissionState:vector ETV
attr interpolationmode sample-hold
attr source transmissionStateChanged
attr title "tx state, vector"
vector 70 scenario.client[7].ppp[7].ppp transmissionState:vector ETV
attr interpolationmode sample-hold
attr source transmissionStateChanged
attr title "tx state, vector"
vector 71 scenario.client[7].ppp[8].ppp transmissionState:vector ETV
attr interpolationmode sample-hold
attr source transmissionStateChanged
attr title "tx state, vector"
vector 72 scenario.client[8].ppp[0].ppp transmissionState:vector ETV
attr interpolationmode sample-hold
attr source transmissionStateChanged
attr title "tx state, vector"
vector 73 scenario.client[8].ppp[1].ppp transmissionState:vector ETV
attr interpolationmode sample-hold
attr source transmissionStateChanged
attr title "tx state, vector"
vector 74 scenario.client[8].ppp[2].ppp transmissionState:vector ETV
attr interpolationmode sample-hold
attr source transmissionStateChanged
attr title "tx state, vector"
vector 75 scenario.client[8].ppp[3].ppp transmissionState:vector ETV
attr interpolationmode sample-hold
attr source transmissionStateChanged
attr title "tx state, vector"
vector 76 scenario.client[8].ppp[4].ppp transmissionState:vector ETV
attr interpolationmode sample-hold
attr source transmissionStateChanged
attr title "tx state, vector"
vector 77 scenario.client[8].ppp[5].ppp transmissionState:vector ETV
attr interpolationmode sample-hold
attr source transmissionStateChanged
attr title "tx state, vector"
vector 78 scenario.client[8].ppp[6].ppp transmissionState:vector ETV
attr interpolationmode sample-hold
attr source transmissionStateChanged
attr title "tx state, vector"
vector 79 scenario.client[8].ppp[7].ppp transmissionState:vector ETV
attr interpolationmode sample-hold
attr source transmissionStateChanged
attr title "tx state, vector"
vector 80 scenario.client[8].ppp[8].ppp transmissionState:vector ETV
attr interpolationmode sample-hold
attr source transmissionStateChanged
attr title "tx state, vector"
vector 81 scenario.client[9].ppp[0].ppp transmissionState:vector ETV
attr interpolationmode sample-hold
attr source transmissionStateChanged
attr title "tx state, vector"
vector 82 scenario.client[9].ppp[1].ppp transmissionState:vector ETV
attr interpolationmode sample-hold
attr source transmissionStateChanged
attr title "tx state, vector"
vector 83 scenario.client[9].ppp[2].ppp transmissionState:vector ETV
attr interpolationmode sample-hold
attr source transmissionStateChanged
attr title "tx state, vector"
vector 84 scenario.client[9].ppp[3].ppp transmissionState:vector ETV
attr interpolationmode sample-hold
attr source transmissionStateChanged
attr title "tx state, vector"
vector 85 scenario.client[9].ppp[4].ppp transmissionState:vector ETV
attr interpolationmode sample-hold
attr source transmissionStateChanged
attr title "tx state, vector"
vector 86 scenario.client[9].ppp[5].ppp transmissionState:vector ETV
attr interpolationmode sample-hold
attr source transmissionStateChanged
attr title "tx state, vector"
vector 87 scenario.client[9].ppp[6].ppp transmissionState:vector ETV
attr interpolationmode sample-hold
attr source transmissionStateChanged
attr title "tx state, vector"
vector 88 scenario.client[9].ppp[7].ppp transmissionState:vector ETV
attr interpolationmode sample-hold
attr source transmissionStateChanged
attr title "tx state, vector"
vector 89 scenario.client[9].ppp[8].ppp transmissionState:vector ETV
attr interpolationmode sample-hold
attr source transmissionStateChanged
attr title "tx state, vector"
vector 90 scenario.client[7].tcp.conn-100 tcpRcvQueueBytes:vector ETV
attr interpolationmode sample-hold
vector 91 scenario.client[7].tcp.conn-100 rcvAdv:vector ETV
attr interpolationmode sample-hold
vector 92 scenario.client[7].tcp.conn-100 rcvWnd:vector ETV
attr interpolationmode sample-hold
vector 93 scenario.client[7].tcp.conn-100 sndAck:vector ETV
attr interpolationmode sample-hold
vector 94 scenario.client[7].tcp.conn-101 tcpRcvQueueBytes:vector ETV
attr interpolationmode sample-hold
vector 95 scenario.client[7].tcp.conn-101 rcvAdv:vector ETV
attr interpolationmode sample-hold
vector 96 scenario.client[7].tcp.conn-101 rcvWnd:vector ETV
attr interpolationmode sample-hold
vector 97 scenario.client[7].tcp.conn-101 sndAck:vector ETV
attr interpolationmode sample-hold
vector 98 scenario.client[7].tcp.conn-102 tcpRcvQueueBytes:vector ETV
attr interpolationmode sample-hold
vector 99 scenario.client[7].tcp.conn-102 rcvAdv:vector ETV
attr interpolationmode sample-hold
vector 100 scenario.client[7].tcp.conn-102 rcvWnd:vector ETV
attr interpolationmode sample-hold
vector 101 scenario.client[7].tcp.conn-102 sndAck:vector ETV
attr interpolationmode sample-hold
vector 102 scenario.client[7].tcp.conn-103 tcpRcvQueueBytes:vector ETV
attr interpolationmode sample-hold
vector 103 scenario.client[7].tcp.conn-103 rcvAdv:vector ETV
attr interpolationmode sample-hold
vector 104 scenario.client[7].tcp.conn-103 rcvWnd:vector ETV
attr interpolationmode sample-hold
vector 105 scenario.client[7].tcp.conn-103 sndAck:vector ETV
attr interpolationmode sample-hold
vector 106 scenario.client[7].tcp.conn-104 tcpRcvQueueBytes:vector ETV
attr interpolationmode sample-hold
vector 107 scenario.client[7].tcp.conn-104 rcvAdv:vector ETV
attr interpolationmode sample-hold
vector 108 scenario.client[7].tcp.conn-104 rcvWnd:vector ETV
attr interpolationmode sample-hold
vector 109 scenario.client[7].tcp.conn-104 sndAck:vector ETV
attr interpolationmode sample-hold
vector 110 scenario.client[7].tcp.conn-105 tcpRcvQueueBytes:vector ETV
attr interpolationmode sample-hold
vector 111 scenario.client[7].tcp.conn-105 rcvAdv:vector ETV
attr interpolationmode sample-hold
vector 112 scenario.client[7].tcp.conn-105 rcvWnd:vector ETV
attr interpolationmode sample-hold
vector 113 scenario.client[7].tcp.conn-105 sndAck:vector ETV
attr interpolationmode sample-hold
vector 114 scenario.client[7].tcp.conn-106 tcpRcvQueueBytes:vector ETV
attr interpolationmode sample-hold
vector 115 scenario.client[7].tcp.conn-106 rcvAdv:vector ETV
attr interpolationmode sample-hold
vector 116 scenario.client[7].tcp.conn-106 rcvWnd:vector ETV
attr interpolationmode sample-hold
vector 117 scenario.client[7].tcp.conn-106 sndAck:vector ETV
attr interpolationmode sample-hold
vector 118 scenario.client[7].ppp[0].ppp rcvdPkFromHl:vector(packetBytes) ETV
attr interpolationmode none
attr source packetReceivedFromUpper
attr title "packets received from higher layer, vector(packetBytes)"
vector 119 scenario.client[7].ppp[0].ppp.queue packetPushed:vector(packetBytes) ETV
attr interpolationmode none
attr title "packet pushed, vector(packetBytes)"
vector 120 scenario.client[7].ppp[0].ppp.queue queueLength:vector ETV
attr interpolationmode sample-hold
attr source "count(packetPushed) - count(packetPopped) - count(packetRemoved) - count(packetDropped)"
attr title "queue length, vector"
vector 121 scenario.client[7].ppp[0].ppp.queue packetPopped:vector(packetBytes) ETV
attr interpolationmode none
attr title "packet popped, vector(packetBytes)"
vector 122 scenario.client[7].ppp[0].ppp.queue queueingTime:vector ETV
attr interpolationmode none
attr source queueingTime(packetPopped)
attr title "queueing times, vector"
attr unit s
vector 123 scenario.client[7].ppp[0].ppp txPk:vector(packetBytes) ETV
attr interpolationmode none
attr source packetSentToLower
attr title "packets transmitted, vector(packetBytes)"
vector 124 scenario.client[7].ppp[1].ppp rcvdPkFromHl:vector(packetBytes) ETV
attr interpolationmode none
attr source packetReceivedFromUpper
attr title "packets received from higher layer, vector(packetBytes)"
vector 125 scenario.client[7].ppp[1].ppp.queue packetPushed:vector(packetBytes) ETV
attr interpolationmode none
attr title "packet pushed, vector(packetBytes)"
vector 126 scenario.client[7].ppp[1].ppp.queue queueLength:vector ETV
attr interpolationmode sample-hold
attr source "count(packetPushed) - count(packetPopped) - count(packetRemoved) - count(packetDropped)"
attr title "queue length, vector"
vector 127 scenario.client[7].ppp[1].ppp.queue packetPopped:vector(packetBytes) ETV
attr interpolationmode none
attr title "packet popped, vector(packetBytes)"
vector 128 scenario.client[7].ppp[1].ppp.queue queueingTime:vector ETV
attr interpolationmode none
attr source queueingTime(packetPopped)
attr title "queueing times, vector"
attr unit s
vector 129 scenario.client[7].ppp[1].ppp txPk:vector(packetBytes) ETV
attr interpolationmode none
attr source packetSentToLower
attr title "packets transmitted, vector(packetBytes)"
vector 130 scenario.client[7].ppp[2].ppp rcvdPkFromHl:vector(packetBytes) ETV
attr interpolationmode none
attr source packetReceivedFromUpper
attr title "packets received from higher layer, vector(packetBytes)"
vector 131 scenario.client[7].ppp[2].ppp.queue packetPushed:vector(packetBytes) ETV
attr interpolationmode none
attr title "packet pushed, vector(packetBytes)"
vector 132 scenario.client[7].ppp[2].ppp.queue queueLength:vector ETV
attr interpolationmode sample-hold
attr source "count(packetPushed) - count(packetPopped) - count(packetRemoved) - count(packetDropped)"
attr title "queue length, vector"
vector 133 scenario.client[7].ppp[2].ppp.queue packetPopped:vector(packetBytes) ETV
attr interpolationmode none
attr title "packet popped, vector(packetBytes)"
vector 134 scenario.client[7].ppp[2].ppp.queue queueingTime:vector ETV
attr interpolationmode none
attr source queueingTime(packetPopped)
attr title "queueing times, vector"
attr unit s
vector 135 scenario.client[7].ppp[2].ppp txPk:vector(packetBytes) ETV
attr interpolationmode none
attr source packetSentToLower
attr title "packets transmitted, vector(packetBytes)"
vector 136 scenario.client[7].ppp[3].ppp rcvdPkFromHl:vector(packetBytes) ETV
attr interpolationmode none
attr source packetReceivedFromUpper
attr title "packets received from higher layer, vector(packetBytes)"
vector 137 scenario.client[7].ppp[3].ppp.queue packetPushed:vector(packetBytes) ETV
attr interpolationmode none
attr title "packet pushed, vector(packetBytes)"
vector 138 scenario.client[7].ppp[3].ppp.queue queueLength:vector ETV
attr interpolationmode sample-hold
attr source "count(packetPushed) - count(packetPopped) - count(packetRemoved) - count(packetDropped)"
attr title "queue length, vector"
vector 139 scenario.client[7].ppp[3].ppp.queue packetPopped:vector(packetBytes) ETV
attr interpolationmode none
attr title "packet popped, vector(packetBytes)"
vector 140 scenario.client[7].ppp[3].ppp.queue queueingTime:vector ETV
attr interpolationmode none
attr source queueingTime(packetPopped)
attr title "queueing times, vector"
attr unit s
vector 141 scenario.client[7].ppp[3].ppp txPk:vector(packetBytes) ETV
attr interpolationmode none
attr source packetSentToLower
attr title "packets transmitted, vector(packetBytes)"
vector 142 scenario.client[7].ppp[4].ppp rcvdPkFromHl:vector(packetBytes) ETV
attr interpolationmode none
attr source packetReceivedFromUpper
attr title "packets received from higher layer, vector(packetBytes)"
vector 143 scenario.client[7].ppp[4].ppp.queue packetPushed:vector(packetBytes) ETV
attr interpolationmode none
attr title "packet pushed, vector(packetBytes)"
vector 144 scenario.client[7].ppp[4].ppp.queue queueLength:vector ETV
attr interpolationmode sample-hold
attr source "count(packetPushed) - count(packetPopped) - count(packetRemoved) - count(packetDropped)"
attr title "queue length, vector"
vector 145 scenario.client[7].ppp[4].ppp.queue packetPopped:vector(packetBytes) ETV
attr interpolationmode none
attr title "packet popped, vector(packetBytes)"
vector 146 scenario.client[7].ppp[4].ppp.queue queueingTime:vector ETV
attr interpolationmode none
attr source queueingTime(packetPopped)
attr title "queueing times, vector"
attr unit s
vector 147 scenario.client[7].ppp[4].ppp txPk:vector(packetBytes) ETV
attr interpolationmode none
attr source packetSentToLower
attr title "packets transmitted, vector(packetBytes)"
vector 148 scenario.client[7].ppp[5].ppp rcvdPkFromHl:vector(packetBytes) ETV
attr interpolationmode none
attr source packetReceivedFromUpper
attr title "packets received from higher layer, vector(packetBytes)"
vector 149 scenario.client[7].ppp[5].ppp.queue packetPushed:vector(packetBytes) ETV
attr interpolationmode none
attr title "packet pushed, vector(packetBytes)"
vector 150 scenario.client[7].ppp[5].ppp.queue queueLength:vector ETV
attr interpolationmode sample-hold
attr source "count(packetPushed) - count(packetPopped) - count(packetRemoved) - count(packetDropped)"
attr title "queue length, vector"
vector 151 scenario.client[7].ppp[5].ppp.queue packetPopped:vector(packetBytes) ETV
attr interpolationmode none
attr title "packet popped, vector(packetBytes)"
vector 152 scenario.client[7].ppp[5].ppp.queue queueingTime:vector ETV
attr interpolationmode none
attr source queueingTime(packetPopped)
attr title "queueing times, vector"
attr unit s
vector 153 scenario.client[7].ppp[5].ppp txPk:vector(packetBytes) ETV
attr interpolationmode none
attr source packetSentToLower
attr title "packets transmitted, vector(packetBytes)"
vector 154 scenario.client[7].ppp[6].ppp rcvdPkFromHl:vector(packetBytes) ETV
attr interpolationmode none
attr source packetReceivedFromUpper
attr title "packets received from higher layer, vector(packetBytes)"
vector 155 scenario.client[7].ppp[6].ppp.queue packetPushed:vector(packetBytes) ETV
attr interpolationmode none
attr title "packet pushed, vector(packetBytes)"
vector 156 scenario.client[7].ppp[6].ppp.queue queueLength:vector ETV
attr interpolationmode sample-hold
attr source "count(packetPushed) - count(packetPopped) - count(packetRemoved) - count(packetDropped)"
attr title "queue length, vector"
vector 157 scenario.client[7].ppp[6].ppp.queue packetPopped:vector(packetBytes) ETV
attr interpolationmode none
attr title "packet popped, vector(packetBytes)"
vector 158 scenario.client[7].ppp[6].ppp.queue queueingTime:vector ETV
attr interpolationmode none
attr source queueingTime(packetPopped)
attr title "queueing times, vector"
attr unit s
vector 159 scenario.client[7].ppp[6].ppp txPk:vector(packetBytes) ETV
attr interpolationmode none
attr source packetSentToLower
attr title "packets transmitted, vector(packetBytes)"
vector 160 scenario.client[0].ppp[6].ppp rxPkOk:vector(packetBytes) ETV
attr interpolationmode none
attr source rxPkOk
attr title "packets received OK, vector(packetBytes)"
vector 161 scenario.client[0].ppp[6].ppp passedUpPk:vector(packetBytes) ETV
attr interpolationmode none
attr source packetSentToUpper
attr title "packets passed to higher layer, vector(packetBytes)"
vector 162 scenario.client[1].ppp[6].ppp rxPkOk:vector(packetBytes) ETV
attr interpolationmode none
attr source rxPkOk
attr title "packets received OK, vector(packetBytes)"
vector 163 scenario.client[1].ppp[6].ppp passedUpPk:vector(packetBytes) ETV
attr interpolationmode none
attr source packetSentToUpper
attr title "packets passed to higher layer, vector(packetBytes)"
vector 164 scenario.client[2].ppp[6].ppp rxPkOk:vector(packetBytes) ETV
attr interpolationmode none
attr source rxPkOk
attr title "packets received OK, vector(packetBytes)"
vector 165 scenario.client[2].ppp[6].ppp passedUpPk:vector(packetBytes) ETV
attr interpolationmode none
attr source packetSentToUpper
attr title "packets passed to higher layer, vector(packetBytes)"
vector 166 scenario.client[3].ppp[6].ppp rxPkOk:vector(packetBytes) ETV
attr interpolationmode none
attr source rxPkOk
attr title "packets received OK, vector(packetBytes)"
vector 167 scenario.client[3].ppp[6].ppp passedUpPk:vector(packetBytes) ETV
attr interpolationmode none
attr source packetSentToUpper
attr title "packets passed to higher layer, vector(packetBytes)"
vector 168 scenario.client[4].ppp[6].ppp rxPkOk:vector(packetBytes) ETV
attr interpolationmode none
attr source rxPkOk
attr title "packets received OK, vector(packetBytes)"
vector 169 scenario.client[4].ppp[6].ppp passedUpPk:vector(packetBytes) ETV
attr interpolationmode none
attr source packetSentToUpper
attr title "packets passed to higher layer, vector(packetBytes)"
vector 170 scenario.client[5].ppp[6].ppp rxPkOk:vector(packetBytes) ETV
attr interpolationmode none
attr source rxPkOk
attr title "packets received OK, vector(packetBytes)"
vector 171 scenario.client[5].ppp[6].ppp passedUpPk:vector(packetBytes) ETV
attr interpolationmode none
attr source packetSentToUpper
attr title "packets passed to higher layer, vector(packetBytes)"
vector 172 scenario.client[6].ppp[6].ppp rxPkOk:vector(packetBytes) ETV
attr interpolationmode none
attr source rxPkOk
attr title "packets received OK, vector(packetBytes)"
vector 173 scenario.client[6].ppp[6].ppp passedUpPk:vector(packetBytes) ETV
attr interpolationmode none
attr source packetSentToUpper
attr title "packets passed to higher layer, vector(packetBytes)"
vector 174 scenario.client[0].tcp.conn-0 rcvSeq:vector ETV
attr interpolationmode sample-hold
vector 175 scenario.client[0].tcp.conn-0 rcvAck:vector ETV
attr interpolationmode sample-hold
vector 176 scenario.client[0].tcp.conn-107 rcvAdv:vector ETV
attr interpolationmode sample-hold
vector 177 scenario.client[0].tcp.conn-107 sndWnd:vector ETV
attr interpolationmode sample-hold
vector 178 scenario.client[0].tcp.conn-107 tcpRcvQueueBytes:vector ETV
attr interpolationmode sample-hold
vector 179 scenario.client[0].tcp.conn-107 rcvWnd:vector ETV
attr interpolationmode sample-hold
vector 180 scenario.client[0].tcp.conn-107 sndAck:vector ETV
attr interpolationmode sample-hold
vector 181 scenario.client[1].tcp.conn-1 rcvSeq:vector ETV
attr interpolationmode sample-hold
vector 182 scenario.client[1].tcp.conn-1 rcvAck:vector ETV
attr interpolationmode sample-hold
vector 183 scenario.client[1].tcp.conn-108 rcvAdv:vector ETV
attr interpolationmode sample-hold
vector 184 scenario.client[1].tcp.conn-108 sndWnd:vector ETV
attr interpolationmode sample-hold
vector 185 scenario.client[1].tcp.conn-108 tcpRcvQueueBytes:vector ETV
attr interpolationmode sample-hold
vector 186 scenario.client[1].tcp.conn-108 rcvWnd:vector ETV
attr interpolationmode sample-hold
vector 187 scenario.client[1].tcp.conn-108 sndAck:vector ETV
attr interpolationmode sample-hold
vector 188 scenario.client[2].tcp.conn-2 rcvSeq:vector ETV
attr interpolationmode sample-hold
vector 189 scenario.client[2].tcp.conn-2 rcvAck:vector ETV
attr interpolationmode sample-hold
vector 190 scenario.client[2].tcp.conn-109 rcvAdv:vector ETV
attr interpolationmode sample-hold
vector 191 scenario.client[2].tcp.conn-109 sndWnd:vector ETV
attr interpolationmode sample-hold
vector 192 scenario.client[2].tcp.conn-109 tcpRcvQueueBytes:vector ETV
attr interpolationmode sample-hold
vector 193 scenario.client[2].tcp.conn-109 rcvWnd:vector ETV
attr interpolationmode sample-hold
vector 194 scenario.client[2].tcp.conn-109 sndAck:vector ETV
attr interpolationmode sample-hold
vector 195 scenario.client[3].tcp.conn-3 rcvSeq:vector ETV
attr interpolationmode sample-hold
vector 196 scenario.client[3].tcp.conn-3 rcvAck:vector ETV
attr interpolationmode sample-hold
vector 197 scenario.client[3].tcp.conn-110 rcvAdv:vector ETV
attr interpolationmode sample-hold
vector 198 scenario.client[3].tcp.conn-110 sndWnd:vector ETV
attr interpolationmode sample-hold
vector 199 scenario.client[3].tcp.conn-110 tcpRcvQueueBytes:vector ETV
attr interpolationmode sample-hold
vector 200 scenario.client[3].tcp.conn-110 rcvWnd:vector ETV
attr interpolationmode sample-hold
vector 201 scenario.client[3].tcp.conn-110 sndAck:vector ETV
attr interpolationmode sample-hold
vector 202 scenario.client[4].tcp.conn-4 rcvSeq:vector ETV
attr interpolationmode sample-hold
vector 203 scenario.client[4].tcp.conn-4 rcvAck:vector ETV
attr interpolationmode sample-hold
vector 204 scenario.client[4].tcp.conn-111 rcvAdv:vector ETV
attr interpolationmode sample-hold
vector 205 scenario.client[4].tcp.conn-111 sndWnd:vector ETV
attr interpolationmode sample-hold
vector 206 scenario.client[4].tcp.conn-111 tcpRcvQueueBytes:vector ETV
attr interpolationmode sample-hold
vector 207 scenario.client[4].tcp.conn-111 rcvWnd:vector ETV
attr interpolationmode sample-hold
vector 208 scenario.client[4].tcp.conn-111 sndAck:vector ETV
attr interpolationmode sample-hold
vector 209 scenario.client[5].tcp.conn-5 rcvSeq:vector ETV
attr interpolationmode sample-hold
vector 210 scenario.client[5].tcp.conn-5 rcvAck:vector ETV
attr interpolationmode sample-hold
vector 211 scenario.client[5].tcp.conn-112 rcvAdv:vector ETV
attr interpolationmode sample-hold
vector 212 scenario.client[5].tcp.conn-112 sndWnd:vector ETV
attr interpolationmode sample-hold
vector 213 scenario.client[5].tcp.conn-112 tcpRcvQueueBytes:vector ETV
attr interpolationmode sample-hold
vector 214 scenario.client[5].tcp.conn-112 rcvWnd:vector ETV
attr interpolationmode sample-hold
vector 215 scenario.client[5].tcp.conn-112 sndAck:vector ETV
attr interpolationmode sample-hold
vector 216 scenario.client[6].tcp.conn-6 rcvSeq:vector ETV
attr interpolationmode sample-hold
vector 217 scenario.client[6].tcp.conn-6 rcvAck:vector ETV
attr interpolationmode sample-hold
vector 218 scenario.client[6].tcp.conn-113 rcvAdv:vector ETV
attr interpolationmode sample-hold
vector 219 scenario.client[6].tcp.conn-113 sndWnd:vector ETV
attr interpolationmode sample-hold
vector 220 scenario.client[6].tcp.conn-113 tcpRcvQueueBytes:vector ETV
attr interpolationmode sample-hold
vector 221 scenario.client[6].tcp.conn-113 rcvWnd:vector ETV
attr interpolationmode sample-hold
vector 222 scenario.client[6].tcp.conn-113 sndAck:vector ETV
attr interpolationmode sample-hold
vector 223 scenario.client[0].ppp[6].ppp rcvdPkFromHl:vector(packetBytes) ETV
attr interpolationmode none
attr source packetReceivedFromUpper
attr title "packets received from higher layer, vector(packetBytes)"
vector 224 scenario.client[0].ppp[6].ppp.queue packetPushed:vector(packetBytes) ETV
attr interpolationmode none
attr title "packet pushed, vector(packetBytes)"
vector 225 scenario.client[0].ppp[6].ppp.queue queueLength:vector ETV
attr interpolationmode sample-hold
attr source "count(packetPushed) - count(packetPopped) - count(packetRemoved) - count(packetDropped)"
attr title "queue length, vector"
vector 226 scenario.client[0].ppp[6].ppp.queue packetPopped:vector(packetBytes) ETV
attr interpolationmode none
attr title "packet popped, vector(packetBytes)"
vector 227 scenario.client[0].ppp[6].ppp.queue queueingTime:vector ETV
attr interpolationmode none
attr source queueingTime(packetPopped)
attr title "queueing times, vector"
attr unit s
vector 228 scenario.client[0].ppp[6].ppp txPk:vector(packetBytes) ETV
attr interpolationmode none
attr source packetSentToLower
attr title "packets transmitted, vector(packetBytes)"
vector 229 scenario.client[1].ppp[6].ppp rcvdPkFromHl:vector(packetBytes) ETV
attr interpolationmode none
attr source packetReceivedFromUpper
attr title "packets received from higher layer, vector(packetBytes)"
vector 230 scenario.client[1].ppp[6].ppp.queue packetPushed:vector(packetBytes) ETV
attr interpolationmode none
attr title "packet pushed, vector(packetBytes)"
vector 231 scenario.client[1].ppp[6].ppp.queue queueLength:vector ETV
attr interpolationmode sample-hold
attr source "count(packetPushed) - count(packetPopped) - count(packetRemoved) - count(packetDropped)"
attr title "queue length, vector"
vector 232 scenario.client[1].ppp[6].ppp.queue packetPopped:vector(packetBytes) ETV
attr interpolationmode none
attr title "packet popped, vector(packetBytes)"
vector 233 scenario.client[1].ppp[6].ppp.queue queueingTime:vector ETV
attr interpolationmode none
attr source queueingTime(packetPopped)
attr title "queueing times, vector"
attr unit s
vector 234 scenario.client[1].ppp[6].ppp txPk:vector(packetBytes) ETV
attr interpolationmode none
attr source packetSentToLower
attr title "packets transmitted, vector(packetBytes)"
vector 235 scenario.client[2].ppp[6].ppp rcvdPkFromHl:vector(packetBytes) ETV
attr interpolationmode none
attr source packetReceivedFromUpper
attr title "packets received from higher layer, vector(packetBytes)"
vector 236 scenario.client[2].ppp[6].ppp.queue packetPushed:vector(packetBytes) ETV
attr interpolationmode none
attr title "packet pushed, vector(packetBytes)"
vector 237 scenario.client[2].ppp[6].ppp.queue queueLength:vector ETV
attr interpolationmode sample-hold
attr source "count(packetPushed) - count(packetPopped) - count(packetRemoved) - count(packetDropped)"
attr title "queue length, vector"
vector 238 scenario.client[2].ppp[6].ppp.queue packetPopped:vector(packetBytes) ETV
attr interpolationmode none
attr title "packet popped, vector(packetBytes)"
vector 239 scenario.client[2].ppp[6].ppp.queue queueingTime:vector ETV
attr interpolationmode none
attr source queueingTime(packetPopped)
attr title "queueing times, vector"
attr unit s
vector 240 scenario.client[2].ppp[6].ppp txPk:vector(packetBytes) ETV
attr interpolationmode none
attr source packetSentToLower
attr title "packets transmitted, vector(packetBytes)"
vector 241 scenario.client[3].ppp[6].ppp rcvdPkFromHl:vector(packetBytes) ETV
attr interpolationmode none
attr source packetReceivedFromUpper
attr title "packets received from higher layer, vector(packetBytes)"
vector 242 scenario.client[3].ppp[6].ppp.queue packetPushed:vector(packetBytes) ETV
attr interpolationmode none
attr title "packet pushed, vector(packetBytes)"
vector 243 scenario.client[3].ppp[6].ppp.queue queueLength:vector ETV
attr interpolationmode sample-hold
attr source "count(packetPushed) - count(packetPopped) - count(packetRemoved) - count(packetDropped)"
attr title "queue length, vector"
vector 244 scenario.client[3].ppp[6].ppp.queue packetPopped:vector(packetBytes) ETV
attr interpolationmode none
attr title "packet popped, vector(packetBytes)"
vector 245 scenario.client[3].ppp[6].ppp.queue queueingTime:vector ETV
attr interpolationmode none
attr source queueingTime(packetPopped)
attr title "queueing times, vector"
attr unit s
vector 246 scenario.client[3].ppp[6].ppp txPk:vector(packetBytes) ETV
attr interpolationmode none
attr source packetSentToLower
attr title "packets transmitted, vector(packetBytes)"
vector 247 scenario.client[4].ppp[6].ppp rcvdPkFromHl:vector(packetBytes) ETV
attr interpolationmode none
attr source packetReceivedFromUpper
attr title "packets received from higher layer, vector(packetBytes)"
vector 248 scenario.client[4].ppp[6].ppp.queue packetPushed:vector(packetBytes) ETV
attr interpolationmode none
attr title "packet pushed, vector(packetBytes)"
vector 249 scenario.client[4].ppp[6].ppp.queue queueLength:vector ETV
attr interpolationmode sample-hold
attr source "count(packetPushed) - count(packetPopped) - count(packetRemoved) - count(packetDropped)"
attr title "queue length, vector"
vector 250 scenario.client[4].ppp[6].ppp.queue packetPopped:vector(packetBytes) ETV
attr interpolationmode none
attr title "packet popped, vector(packetBytes)"
vector 251 scenario.client[4].ppp[6].ppp.queue queueingTime:vector ETV
attr interpolationmode none
attr source queueingTime(packetPopped)
attr title "queueing times, vector"
attr unit s
vector 252 scenario.client[4].ppp[6].ppp txPk:vector(packetBytes) ETV
attr interpolationmode none
attr source packetSentToLower
attr title "packets transmitted, vector(packetBytes)"
vector 253 scenario.client[5].ppp[6].ppp rcvdPkFromHl:vector(packetBytes) ETV
attr interpolationmode none
attr source packetReceivedFromUpper
attr title "packets received from higher layer, vector(packetBytes)"
vector 254 scenario.client[5].ppp[6].ppp.queue packetPushed:vector(packetBytes) ETV
attr interpolationmode none
attr title "packet pushed, vector(packetBytes)"
vector 255 scenario.client[5].ppp[6].ppp.queue queueLength:vector ETV
attr interpolationmode sample-hold
attr source "count(packetPushed) - count(packetPopped) - count(packetRemoved) - count(packetDropped)"
attr title "queue length, vector"
vector 256 scenario.client[5].ppp[6].ppp.queue packetPopped:vector(packetBytes) ETV
attr interpolationmode none
attr title "packet popped, vector(packetBytes)"
vector 257 scenario.client[5].ppp[6].ppp.queue queueingTime:vector ETV
attr interpolationmode none
attr source queueingTime(packetPopped)
attr title "queueing times, vector"
attr unit s
vector 258 scenario.client[5].ppp[6].ppp txPk:vector(packetBytes) ETV
attr interpolationmode none
attr source packetSentToLower
attr title "packets transmitted, vector(packetBytes)"
vector 259 scenario.client[6].ppp[6].ppp rcvdPkFromHl:vector(packetBytes) ETV
attr interpolationmode none
attr source packetReceivedFromUpper
attr title "packets received from higher layer, vector(packetBytes)"
vector 260 scenario.client[6].ppp[6].ppp.queue packetPushed:vector(packetBytes) ETV
attr interpolationmode none
attr title "packet pushed, vector(packetBytes)"
vector 261 scenario.client[6].ppp[6].ppp.queue queueLength:vector ETV
attr interpolationmode sample-hold
attr source "count(packetPushed) - count(packetPopped) - count(packetRemoved) - count(packetDropped)"
attr title "queue length, vector"
vector 262 scenario.client[6].ppp[6].ppp.queue packetPopped:vector(packetBytes) ETV
attr interpolationmode none
attr title "packet popped, vector(packetBytes)"
vector 263 scenario.client[6].ppp[6].ppp.queue queueingTime:vector ETV
attr interpolationmode none
attr source queueingTime(packetPopped)
attr title "queueing times, vector"
attr unit s
vector 264 scenario.client[6].ppp[6].ppp txPk:vector(packetBytes) ETV
attr interpolationmode none
attr source packetSentToLower
attr title "packets transmitted, vector(packetBytes)"
vector 265 scenario.client[7].ppp[0].ppp rxPkOk:vector(packetBytes) ETV
attr interpolationmode none
attr source rxPkOk
attr title "packets received OK, vector(packetBytes)"
vector 266 scenario.client[7].ppp[0].ppp passedUpPk:vector(packetBytes) ETV
attr interpolationmode none
attr source packetSentToUpper
attr title "packets passed to higher layer, vector(packetBytes)"
vector 267 scenario.client[7].ppp[1].ppp rxPkOk:vector(packetBytes) ETV
attr interpolationmode none
attr source rxPkOk
attr title "packets received OK, vector(packetBytes)"
vector 268 scenario.client[7].ppp[1].ppp passedUpPk:vector(packetBytes) ETV
attr interpolationmode none
attr source packetSentToUpper
attr title "packets passed to higher layer, vector(packetBytes)"
vector 269 scenario.client[7].ppp[2].ppp rxPkOk:vector(packetBytes) ETV
attr interpolationmode none
attr source rxPkOk
attr title "packets received OK, vector(packetBytes)"
vector 270 scenario.client[7].ppp[2].ppp passedUpPk:vector(packetBytes) ETV
attr interpolationmode none
attr source packetSentToUpper
attr title "packets passed to higher layer, vector(packetBytes)"
vector 271 scenario.client[7].ppp[3].ppp rxPkOk:vector(packetBytes) ETV
attr interpolationmode none
attr source rxPkOk
attr title "packets received OK, vector(packetBytes)"
vector 272 scenario.client[7].ppp[3].ppp passedUpPk:vector(packetBytes) ETV
attr interpolationmode none
attr source packetSentToUpper
attr title "packets passed to higher layer, vector(packetBytes)"
vector 273 scenario.client[7].ppp[4].ppp rxPkOk:vector(packetBytes) ETV
attr interpolationmode none
attr source rxPkOk
attr title "packets received OK, vector(packetBytes)"
vector 274 scenario.client[7].ppp[4].ppp passedUpPk:vector(packetBytes) ETV
attr interpolationmode none
attr source packetSentToUpper
attr title "packets passed to higher layer, vector(packetBytes)"
vector 275 scenario.client[7].ppp[5].ppp rxPkOk:vector(packetBytes) ETV
attr interpolationmode none
attr source rxPkOk
attr title "packets received OK, vector(packetBytes)"
vector 276 scenario.client[7].ppp[5].ppp passedUpPk:vector(packetBytes) ETV
attr interpolationmode none
attr source packetSentToUpper
attr title "packets passed to higher layer, vector(packetBytes)"
vector 277 scenario.client[7].ppp[6].ppp rxPkOk:vector(packetBytes) ETV
attr interpolationmode none
attr source rxPkOk
attr title "packets received OK, vector(packetBytes)"
vector 278 scenario.client[7].ppp[6].ppp passedUpPk:vector(packetBytes) ETV
attr interpolationmode none
attr source packetSentToUpper
attr title "packets passed to higher layer, vector(packetBytes)"
vector 279 scenario.client[7].tcp.conn-100 rcvSeq:vector ETV
attr interpolationmode sample-hold
vector 280 scenario.client[7].tcp.conn-100 rcvAck:vector ETV
attr interpolationmode sample-hold
vector 281 scenario.client[7].tcp.conn-100 sndWnd:vector ETV
attr interpolationmode sample-hold
vector 282 scenario.client[7].tcp.conn-100 unacked:vector ETV
attr interpolationmode sample-hold
vector 283 scenario.client[7].tcp.conn-101 rcvSeq:vector ETV
attr interpolationmode sample-hold
vector 284 scenario.client[7].tcp.conn-101 rcvAck:vector ETV
attr interpolationmode sample-hold
vector 285 scenario.client[7].tcp.conn-101 sndWnd:vector ETV
attr interpolationmode sample-hold
vector 286 scenario.client[7].tcp.conn-101 unacked:vector ETV
attr interpolationmode sample-hold
vector 287 scenario.client[7].tcp.conn-102 rcvSeq:vector ETV
attr interpolationmode sample-hold
vector 288 scenario.client[7].tcp.conn-102 rcvAck:vector ETV
attr interpolationmode sample-hold
vector 289 scenario.client[7].tcp.conn-102 sndWnd:vector ETV
attr interpolationmode sample-hold
vector 290 scenario.client[7].tcp.conn-102 unacked:vector ETV
attr interpolationmode sample-hold
vector 291 scenario.client[7].tcp.conn-103 rcvSeq:vector ETV
attr interpolationmode sample-hold
vector 292 scenario.client[7].tcp.conn-103 rcvAck:vector ETV
attr interpolationmode sample-hold
vector 293 scenario.client[7].tcp.conn-103 sndWnd:vector ETV
attr interpolationmode sample-hold
vector 294 scenario.client[7].tcp.conn-103 unacked:vector ETV
attr interpolationmode sample-hold
vector 295 scenario.client[7].tcp.conn-104 rcvSeq:vector ETV
attr interpolationmode sample-hold
vector 296 scenario.client[7].tcp.conn-104 rcvAck:vector ETV
attr interpolationmode sample-hold
vector 297 scenario.client[7].tcp.conn-104 sndWnd:vector ETV
attr interpolationmode sample-hold
vector 298 scenario.client[7].tcp.conn-104 unacked:vector ETV
attr interpolationmode sample-hold
vector 299 scenario.client[7].tcp.conn-105 rcvSeq:vector ETV
attr interpolationmode sample-hold
vector 300 scenario.client[7].tcp.conn-105 rcvAck:vector ETV
attr interpolationmode sample-hold
vector 301 scenario.client[7].tcp.conn-105 sndWnd:vector ETV
attr interpolationmode sample-hold
vector 302 scenario.client[7].tcp.conn-105 unacked:vector ETV
attr interpolationmode sample-hold
vector 303 scenario.client[7].tcp.conn-106 rcvSeq:vector ETV
attr interpolationmode sample-hold
vector 304 scenario.client[7].tcp.conn-106 rcvAck:vector ETV
attr interpolationmode sample-hold
vector 305 scenario.client[7].tcp.conn-106 sndWnd:vector ETV
attr interpolationmode sample-hold
vector 306 scenario.client[7].tcp.conn-106 unacked:vector ETV
attr interpolationmode sample-hold
vector 307 scenario.client[0].tcp.conn-107 rcvSeq:vector ETV
attr interpolationmode sample-hold
vector 308 scenario.client[0].tcp.conn-107 rcvAck:vector ETV
attr interpolationmode sample-hold
vector 309 scenario.client[0].tcp.conn-107 unacked:vector ETV
attr interpolationmode sample-hold
vector 310 scenario.client[0].tcp.conn-107 cwnd:vector ETV
attr interpolationmode sample-hold
vector 311 scenario.client[0].tcp.conn-107 ssthresh:vector ETV
attr interpolationmode sample-hold
vector 312 scenario.client[0].tcp.conn-107 dupAcks:vector ETV
attr interpolationmode sample-hold
vector 313 scenario.client[1].tcp.conn-108 rcvSeq:vector ETV
attr interpolationmode sample-hold
vector 314 scenario.client[1].tcp.conn-108 rcvAck:vector ETV
attr interpolationmode sample-hold
vector 315 scenario.client[1].tcp.conn-108 unacked:vector ETV
attr interpolationmode sample-hold
vector 316 scenario.client[1].tcp.conn-108 cwnd:vector ETV
attr interpolationmode sample-hold
vector 317 scenario.client[1].tcp.conn-108 ssthresh:vector ETV
attr interpolationmode sample-hold
vector 318 scenario.client[1].tcp.conn-108 dupAcks:vector ETV
attr interpolationmode sample-hold
vector 319 scenario.client[2].tcp.conn-109 rcvSeq:vector ETV
attr interpolationmode sample-hold
vector 320 scenario.client[2].tcp.conn-109 rcvAck:vector ETV
attr interpolationmode sample-hold
vector 321 scenario.client[2].tcp.conn-109 unacked:vector ETV
attr interpolationmode sample-hold
vector 322 scenario.client[2].tcp.conn-109 cwnd:vector ETV
attr interpolationmode sample-hold
vector 323 scenario.client[2].tcp.conn-109 ssthresh:vector ETV
attr interpolationmode sample-hold
vector 324 scenario.client[2].tcp.conn-109 dupAcks:vector ETV
attr interpolationmode sample-hold
vector 325 scenario.client[3].tcp.conn-110 rcvSeq:vector ETV
attr interpolationmode sample-hold
vector 326 scenario.client[3].tcp.conn-110 rcvAck:vector ETV
attr interpolationmode sample-hold
vector 327 scenario.client[3].tcp.conn-110 unacked:vector ETV
attr interpolationmode sample-hold
vector 328 scenario.client[3].tcp.conn-110 cwnd:vector ETV
attr interpolationmode sample-hold
vector 329 scenario.client[3].tcp.conn-110 ssthresh:vector ETV
attr interpolationmode sample-hold
vector 330 scenario.client[3].tcp.conn-110 dupAcks:vector ETV
attr interpolationmode sample-hold
vector 331 scenario.client[4].tcp.conn-111 rcvSeq:vector ETV
attr interpolationmode sample-hold
vector 332 scenario.client[4].tcp.conn-111 rcvAck:vector ETV
attr interpolationmode sample-hold
vector 333 scenario.client[4].tcp.conn-111 unacked:vector ETV
attr interpolationmode sample-hold
vector 334 scenario.client[4].tcp.conn-111 cwnd:vector ETV
attr interpolationmode sample-hold
vector 335 scenario.client[4].tcp.conn-111 ssthresh:vector ETV
attr interpolationmode sample-hold
vector 336 scenario.client[4].tcp.conn-111 dupAcks:vector ETV
attr interpolationmode sample-hold
vector 337 scenario.client[5].tcp.conn-112 rcvSeq:vector ETV
attr interpolationmode sample-hold
vector 338 scenario.client[5].tcp.conn-112 rcvAck:vector ETV
attr interpolationmode sample-hold
vector 339 scenario.client[5].tcp.conn-112 unacked:vector ETV
attr interpolationmode sample-hold
vector 340 scenario.client[5].tcp.conn-112 cwnd:vector ETV
attr interpolationmode sample-hold
vector 341 scenario.client[5].tcp.conn-112 ssthresh:vector ETV
attr interpolationmode sample-hold
vector 342 scenario.client[5].tcp.conn-112 dupAcks:vector ETV
attr interpolationmode sample-hold
vector 343 scenario.client[6].tcp.conn-113 rcvSeq:vector ETV
attr interpolationmode sample-hold
vector 344 scenario.client[6].tcp.conn-113 rcvAck:vector ETV
attr interpolationmode sample-hold
vector 345 scenario.client[6].tcp.conn-113 unacked:vector ETV
attr interpolationmode sample-hold
vector 346 scenario.client[6].tcp.conn-113 cwnd:vector ETV
attr interpolationmode sample-hold
vector 347 scenario.client[6].tcp.conn-113 ssthresh:vector ETV
attr interpolationmode sample-hold
vector 348 scenario.client[6].tcp.conn-113 dupAcks:vector ETV
attr interpolationmode sample-hold
vector 349 scenario.client[0].tcp.conn-114 tcpRcvQueueBytes:vector ETV
attr interpolationmode sample-hold
vector 350 scenario.client[0].tcp.conn-114 rcvAdv:vector ETV
attr interpolationmode sample-hold
vector 351 scenario.client[0].tcp.conn-114 rcvWnd:vector ETV
attr interpolationmode sample-hold
vector 352 scenario.client[0].tcp.conn-114 sndAck:vector ETV
attr interpolationmode sample-hold
vector 353 scenario.client[1].tcp.conn-115 tcpRcvQueueBytes:vector ETV
attr interpolationmode sample-hold
vector 354 scenario.client[1].tcp.conn-115 rcvAdv:vector ETV
attr interpolationmode sample-hold
vector 355 scenario.client[1].tcp.conn-115 rcvWnd:vector ETV
attr interpolationmode sample-hold
vector 356 scenario.client[1].tcp.conn-115 sndAck:vector ETV
attr interpolationmode sample-hold
vector 357 scenario.client[2].tcp.conn-116 tcpRcvQueueBytes:vector ETV
attr interpolationmode sample-hold
vector 358 scenario.client[2].tcp.conn-116 rcvAdv:vector ETV
attr interpolationmode sample-hold
vector 359 scenario.client[2].tcp.conn-116 rcvWnd:vector ETV
attr interpolationmode sample-hold
vector 360 scenario.client[2].tcp.conn-116 sndAck:vector ETV
attr interpolationmode sample-hold
vector 361 scenario.client[3].tcp.conn-117 tcpRcvQueueBytes:vector ETV
attr interpolationmode sample-hold
vector 362 scenario.client[3].tcp.conn-117 rcvAdv:vector ETV
attr interpolationmode sample-hold
vector 363 scenario.client[3].tcp.conn-117 rcvWnd:vector ETV
attr interpolationmode sample-hold
vector 364 scenario.client[3].tcp.conn-117 sndAck:vector ETV
attr interpolationmode sample-hold
vector 365 scenario.client[4].tcp.conn-118 tcpRcvQueueBytes:vector ETV
attr interpolationmode sample-hold
vector 366 scenario.client[4].tcp.conn-118 rcvAdv:vector ETV
attr interpolationmode sample-hold
vector 367 scenario.client[4].tcp.conn-118 rcvWnd:vector ETV
attr interpolationmode sample-hold
vector 368 scenario.client[4].tcp.conn-118 sndAck:vector ETV
attr interpolationmode sample-hold
vector 369 scenario.client[5].tcp.conn-119 tcpRcvQueueBytes:vector ETV
attr interpolationmode sample-hold
vector 370 scenario.client[5].tcp.conn-119 rcvAdv:vector ETV
attr interpolationmode sample-hold
vector 371 scenario.client[5].tcp.conn-119 rcvWnd:vector ETV
attr interpolationmode sample-hold
vector 372 scenario.client[5].tcp.conn-119 sndAck:vector ETV
attr interpolationmode sample-hold
vector 373 scenario.client[6].tcp.conn-120 tcpRcvQueueBytes:vector ETV
attr interpolationmode sample-hold
vector 374 scenario.client[6].tcp.conn-120 rcvAdv:vector ETV
attr interpolationmode sample-hold
vector 375 scenario.client[6].tcp.conn-120 rcvWnd:vector ETV
attr interpolationmode sample-hold
vector 376 scenario.client[6].tcp.conn-120 sndAck:vector ETV
attr interpolationmode sample-hold
vector 377 scenario.client[7].tcp.conn-100 rtt:vector ETV
attr interpolationmode sample-hold
vector 378 scenario.client[7].tcp.conn-100 srtt:vector ETV
attr interpolationmode sample-hold
vector 379 scenario.client[7].tcp.conn-100 rttvar:vector ETV
attr interpolationmode sample-hold
vector 380 scenario.client[7].tcp.conn-100 rto:vector ETV
attr interpolationmode sample-hold
vector 381 scenario.client[7].tcp.conn-100 cwnd:vector ETV
attr interpolationmode sample-hold
vector 382 scenario.client[7].tcp.conn-100 ssthresh:vector ETV
attr interpolationmode sample-hold
vector 383 scenario.client[7].tcp.conn-100 dupAcks:vector ETV
attr interpolationmode sample-hold
vector 384 scenario.client[7].tcp.conn-101 rtt:vector ETV
attr interpolationmode sample-hold
vector 385 scenario.client[7].tcp.conn-101 srtt:vector ETV
attr interpolationmode sample-hold
vector 386 scenario.client[7].tcp.conn-101 rttvar:vector ETV
attr interpolationmode sample-hold
vector 387 scenario.client[7].tcp.conn-101 rto:vector ETV
attr interpolationmode sample-hold
vector 388 scenario.client[7].tcp.conn-101 cwnd:vector ETV
attr interpolationmode sample-hold
vector 389 scenario.client[7].tcp.conn-101 ssthresh:vector ETV
attr interpolationmode sample-hold
vector 390 scenario.client[7].tcp.conn-101 dupAcks:vector ETV
attr interpolationmode sample-hold
vector 391 scenario.client[7].tcp.conn-102 rtt:vector ETV
attr interpolationmode sample-hold
vector 392 scenario.client[7].tcp.conn-102 srtt:vector ETV
attr interpolationmode sample-hold
vector 393 scenario.client[7].tcp.conn-102 rttvar:vector ETV
attr interpolationmode sample-hold
vector 394 scenario.client[7].tcp.conn-102 rto:vector ETV
attr interpolationmode sample-hold
vector 395 scenario.client[7].tcp.conn-102 cwnd:vector ETV
attr interpolationmode sample-hold
vector 396 scenario.client[7].tcp.conn-102 ssthresh:vector ETV
attr interpolationmode sample-hold
vector 397 scenario.client[7].tcp.conn-102 dupAcks:vector ETV
attr interpolationmode sample-hold
vector 398 scenario.client[7].tcp.conn-103 rtt:vector ETV
attr interpolationmode sample-hold
vector 399 scenario.client[7].tcp.conn-103 srtt:vector ETV
attr interpolationmode sample-hold
vector 400 scenario.client[7].tcp.conn-103 rttvar:vector ETV
attr interpolationmode sample-hold
vector 401 scenario.client[7].tcp.conn-103 rto:vector ETV
attr interpolationmode sample-hold
vector 402 scenario.client[7].tcp.conn-103 cwnd:vector ETV
attr interpolationmode sample-hold
vector 403 scenario.client[7].tcp.conn-103 ssthresh:vector ETV
attr interpolationmode sample-hold
vector 404 scenario.client[7].tcp.conn-103 dupAcks:vector ETV
attr interpolationmode sample-hold
vector 405 scenario.client[7].tcp.conn-104 rtt:vector ETV
attr interpolationmode sample-hold
vector 406 scenario.client[7].tcp.conn-104 srtt:vector ETV
attr interpolationmode sample-hold
vector 407 scenario.client[7].tcp.conn-104 rttvar:vector ETV
attr interpolationmode sample-hold
vector 408 scenario.client[7].tcp.conn-104 rto:vector ETV
attr interpolationmode sample-hold
vector 409 scenario.client[7].tcp.conn-104 cwnd:vector ETV
attr interpolationmode sample-hold
vector 410 scenario.client[7].tcp.conn-104 ssthresh:vector ETV
attr interpolationmode sample-hold
vector 411 scenario.client[7].tcp.conn-104 dupAcks:vector ETV
attr interpolationmode sample-hold
vector 412 scenario.client[7].tcp.conn-105 rtt:vector ETV
attr interpolationmode sample-hold
vector 413 scenario.client[7].tcp.conn-105 srtt:vector ETV
attr interpolationmode sample-hold
vector 414 scenario.client[7].tcp.conn-105 rttvar:vector ETV
attr interpolationmode sample-hold
vector 415 scenario.client[7].tcp.conn-105 rto:vector ETV
attr interpolationmode sample-hold
vector 416 scenario.client[7].tcp.conn-105 cwnd:vector ETV
attr interpolationmode sample-hold
vector 417 scenario.client[7].tcp.conn-105 ssthresh:vector ETV
attr interpolationmode sample-hold
vector 418 scenario.client[7].tcp.conn-105 dupAcks:vector ETV
attr interpolationmode sample-hold
vector 419 scenario.client[7].tcp.conn-106 rtt:vector ETV
attr interpolationmode sample-hold
vector 420 scenario.client[7].tcp.conn-106 srtt:vector ETV
attr interpolationmode sample-hold
vector 421 scenario.client[7].tcp.conn-106 rttvar:vector ETV
attr interpolationmode sample-hold
vector 422 scenario.client[7].tcp.conn-106 rto:vector ETV
attr interpolationmode sample-hold
vector 423 scenario.client[7].tcp.conn-106 cwnd:vector ETV
attr interpolationmode sample-hold
vector 424 scenario.client[7].tcp.conn-106 ssthresh:vector ETV
attr interpolationmode sample-hold
vector 425 scenario.client[7].tcp.conn-106 dupAcks:vector ETV
attr interpolationmode sample-hold
vector 426 scenario.client[7].tcp.conn-7 rcvSeq:vector ETV
attr interpolationmode sample-hold
vector 427 scenario.client[7].tcp.conn-7 rcvAck:vector ETV
attr interpolationmode sample-hold
vector 428 scenario.client[7].tcp.conn-121 rcvAdv:vector ETV
attr interpolationmode sample-hold
vector 429 scenario.client[7].tcp.conn-121 sndWnd:vector ETV
attr interpolationmode sample-hold
vector 430 scenario.client[7].tcp.conn-121 tcpRcvQueueBytes:vector ETV
attr interpolationmode sample-hold
vector 431 scenario.client[7].tcp.conn-121 rcvWnd:vector ETV
attr interpolationmode sample-hold
vector 432 scenario.client[7].tcp.conn-121 sndAck:vector ETV
attr interpolationmode sample-hold
vector 433 scenario.client[7].tcp.conn-122 rcvAdv:vector ETV
attr interpolationmode sample-hold
vector 434 scenario.client[7].tcp.conn-122 sndWnd:vector ETV
attr interpolationmode sample-hold
vector 435 scenario.client[7].tcp.conn-122 tcpRcvQueueBytes:vector ETV
attr interpolationmode sample-hold
vector 436 scenario.client[7].tcp.conn-122 rcvWnd:vector ETV
attr interpolationmode sample-hold
vector 437 scenario.client[7].tcp.conn-122 sndAck:vector ETV
attr interpolationmode sample-hold
vector 438 scenario.client[7].tcp.conn-123 rcvAdv:vector ETV
attr interpolationmode sample-hold
vector 439 scenario.client[7].tcp.conn-123 sndWnd:vector ETV
attr interpolationmode sample-hold
vector 440 scenario.client[7].tcp.conn-123 tcpRcvQueueBytes:vector ETV
attr interpolationmode sample-hold
vector 441 scenario.client[7].tcp.conn-123 rcvWnd:vector ETV
attr interpolationmode sample-hold
vector 442 scenario.client[7].tcp.conn-123 sndAck:vector ETV
attr interpolationmode sample-hold
vector 443 scenario.client[7].tcp.conn-124 rcvAdv:vector ETV
attr interpolationmode sample-hold
vector 444 scenario.client[7].tcp.conn-124 sndWnd:vector ETV
attr interpolationmode sample-hold
vector 445 scenario.client[7].tcp.conn-124 tcpRcvQueueBytes:vector ETV
attr interpolationmode sample-hold
vector 446 scenario.client[7].tcp.conn-124 rcvWnd:vector ETV
attr interpolationmode sample-hold
vector 447 scenario.client[7].tcp.conn-124 sndAck:vector ETV
attr interpolationmode sample-hold
vector 448 scenario.client[7].tcp.conn-125 rcvAdv:vector ETV
attr interpolationmode sample-hold
vector 449 scenario.client[7].tcp.conn-125 sndWnd:vector ETV
attr interpolationmode sample-hold
vector 450 scenario.client[7].tcp.conn-125 tcpRcvQueueBytes:vector ETV
attr interpolationmode sample-hold
vector 451 scenario.client[7].tcp.conn-125 rcvWnd:vector ETV
attr interpolationmode sample-hold
vector 452 scenario.client[7].tcp.conn-125 sndAck:vector ETV
attr interpolationmode sample-hold
vector 453 scenario.client[7].tcp.conn-126 rcvAdv:vector ETV
attr interpolationmode sample-hold
vector 454 scenario.client[7].tcp.conn-126 sndWnd:vector ETV
attr interpolationmode sample-hold
vector 455 scenario.client[7].tcp.conn-126 tcpRcvQueueBytes:vector ETV
attr interpolationmode sample-hold
vector 456 scenario.client[7].tcp.conn-126 rcvWnd:vector ETV
attr interpolationmode sample-hold
vector 457 scenario.client[7].tcp.conn-126 sndAck:vector ETV
attr interpolationmode sample-hold
vector 458 scenario.client[7].tcp.conn-127 rcvAdv:vector ETV
attr interpolationmode sample-hold
vector 459 scenario.client[7].tcp.conn-127 sndWnd:vector ETV
attr interpolationmode sample-hold
vector 460 scenario.client[7].tcp.conn-127 tcpRcvQueueBytes:vector ETV
attr interpolationmode sample-hold
vector 461 scenario.client[7].tcp.conn-127 rcvWnd:vector ETV
attr interpolationmode sample-hold
vector 462 scenario.client[7].tcp.conn-127 sndAck:vector ETV
attr interpolationmode sample-hold
vector 463 scenario.client[0].tcp.conn-114 rcvSeq:vector ETV
attr interpolationmode sample-hold
vector 464 scenario.client[0].tcp.conn-114 rcvAck:vector ETV
attr interpolationmode sample-hold
vector 465 scenario.client[0].tcp.conn-114 sndWnd:vector ETV
attr interpolationmode sample-hold
vector 466 scenario.client[0].tcp.conn-114 unacked:vector ETV
attr interpolationmode sample-hold
vector 467 scenario.client[1].tcp.conn-115 rcvSeq:vector ETV
attr interpolationmode sample-hold
vector 468 scenario.client[1].tcp.conn-115 rcvAck:vector ETV
attr interpolationmode sample-hold
vector 469 scenario.client[1].tcp.conn-115 sndWnd:vector ETV
attr interpolationmode sample-hold
vector 470 scenario.client[1].tcp.conn-115 unacked:vector ETV
attr interpolationmode sample-hold
vector 471 scenario.client[2].tcp.conn-116 rcvSeq:vector ETV
attr interpolationmode sample-hold
vector 472 scenario.client[2].tcp.conn-116 rcvAck:vector ETV
attr interpolationmode sample-hold
vector 473 scenario.client[2].tcp.conn-116 sndWnd:vector ETV
attr interpolationmode sample-hold
vector 474 scenario.client[2].tcp.conn-116 unacked:vector ETV
attr interpolationmode sample-hold
vector 475 scenario.client[3].tcp.conn-117 rcvSeq:vector ETV
attr interpolationmode sample-hold
vector 476 scenario.client[3].tcp.conn-117 rcvAck:vector ETV
attr interpolationmode sample-hold
vector 477 scenario.client[3].tcp.conn-117 sndWnd:vector ETV
attr interpolationmode sample-hold
vector 478 scenario.client[3].tcp.conn-117 unacked:vector ETV
attr interpolationmode sample-hold
vector 479 scenario.client[4].tcp.conn-118 rcvSeq:vector ETV
attr interpolationmode sample-hold
vector 480 scenario.client[4].tcp.conn-118 rcvAck:vector ETV
attr interpolationmode sample-hold
vector 481 scenario.client[4].tcp.conn-118 sndWnd:vector ETV
attr interpolationmode sample-hold
vector 482 scenario.client[4].tcp.conn-118 unacked:vector ETV
attr interpolationmode sample-hold
vector 483 scenario.client[5].tcp.conn-119 rcvSeq:vector ETV
attr interpolationmode sample-hold
vector 484 scenario.client[5].tcp.conn-119 rcvAck:vector ETV
attr interpolationmode sample-hold
vector 485 scenario.client[5].tcp.conn-119 sndWnd:vector ETV
attr interpolationmode sample-hold
vector 486 scenario.client[5].tcp.conn-119 unacked:vector ETV
attr interpolationmode sample-hold
vector 487 scenario.client[6].tcp.conn-120 rcvSeq:vector ETV
attr interpolationmode sample-hold
vector 488 scenario.client[6].tcp.conn-120 rcvAck:vector ETV
attr interpolationmode sample-hold
vector 489 scenario.client[6].tcp.conn-120 sndWnd:vector ETV
attr interpolationmode sample-hold
vector 490 scenario.client[6].tcp.conn-120 unacked:vector ETV
attr interpolationmode sample-hold
vector 491 scenario.client[7].tcp.conn-121 rcvSeq:vector ETV
attr interpolationmode sample-hold
vector 492 scenario.client[7].tcp.conn-121 rcvAck:vector ETV
attr interpolationmode sample-hold
vector 493 scenario.client[7].tcp.conn-121 unacked:vector ETV
attr interpolationmode sample-hold
vector 494 scenario.client[7].tcp.conn-121 cwnd:vector ETV
attr interpolationmode sample-hold
vector 495 scenario.client[7].tcp.conn-121 ssthresh:vector ETV
attr interpolationmode sample-hold
vector 496 scenario.client[7].tcp.conn-121 dupAcks:vector ETV
attr interpolationmode sample-hold
vector 497 scenario.client[7].tcp.conn-122 rcvSeq:vector ETV
attr interpolationmode sample-hold
vector 498 scenario.client[7].tcp.conn-122 rcvAck:vector ETV
attr interpolationmode sample-hold
vector 499 scenario.client[7].tcp.conn-122 unacked:vector ETV
attr interpolationmode sample-hold
vector 500 scenario.client[7].tcp.conn-122 cwnd:vector ETV
attr interpolationmode sample-hold
vector 501 scenario.client[7].tcp.conn-122 ssthresh:vector ETV
attr interpolationmode sample-hold
vector 502 scenario.client[7].tcp.conn-122 dupAcks:vector ETV
attr interpolationmode sample-hold
vector 503 scenario.client[7].tcp.conn-123 rcvSeq:vector ETV
attr interpolationmode sample-hold
vector 504 scenario.client[7].tcp.conn-123 rcvAck:vector ETV
attr interpolationmode sample-hold
vector 505 scenario.client[7].tcp.conn-123 unacked:vector ETV
attr interpolationmode sample-hold
vector 506 scenario.client[7].tcp.conn-123 cwnd:vector ETV
attr interpolationmode sample-hold
vector 507 scenario.client[7].tcp.conn-123 ssthresh:vector ETV
attr interpolationmode sample-hold
vector 508 scenario.client[7].tcp.conn-123 dupAcks:vector ETV
attr interpolationmode sample-hold
vector 509 scenario.client[7].tcp.conn-124 rcvSeq:vector ETV
attr interpolationmode sample-hold
vector 510 scenario.client[7].tcp.conn-124 rcvAck:vector ETV
attr interpolationmode sample-hold
vector 511 scenario.client[7].tcp.conn-124 unacked:vector ETV
attr interpolationmode sample-hold
vector 512 scenario.client[7].tcp.conn-124 cwnd:vector ETV
attr interpolationmode sample-hold
vector 513 scenario.client[7].tcp.conn-124 ssthresh:vector ETV
attr interpolationmode sample-hold
vector 514 scenario.client[7].tcp.conn-124 dupAcks:vector ETV
attr interpolationmode sample-hold
vector 515 scenario.client[7].tcp.conn-125 rcvSeq:vector ETV
attr interpolationmode sample-hold
vector 516 scenario.client[7].tcp.conn-125 rcvAck:vector ETV
attr interpolationmode sample-hold
vector 517 scenario.client[7].tcp.conn-125 unacked:vector ETV
attr interpolationmode sample-hold
vector 518 scenario.client[7].tcp.conn-125 cwnd:vector ETV
attr interpolationmode sample-hold
vector 519 scenario.client[7].tcp.conn-125 ssthresh:vector ETV
attr interpolationmode sample-hold
vector 520 scenario.client[7].tcp.conn-125 dupAcks:vector ETV
attr interpolationmode sample-hold
vector 521 scenario.client[7].tcp.conn-126 rcvSeq:vector ETV
attr interpolationmode sample-hold
vector 522 scenario.client[7].tcp.conn-126 rcvAck:vector ETV
attr interpolationmode sample-hold
vector 523 scenario.client[7].tcp.conn-126 unacked:vector ETV
attr interpolationmode sample-hold
vector 524 scenario.client[7].tcp.conn-126 cwnd:vector ETV
attr interpolationmode sample-hold
vector 525 scenario.client[7].tcp.conn-126 ssthresh:vector ETV
attr interpolationmode sample-hold
vector 526 scenario.client[7].tcp.conn-126 dupAcks:vector ETV
attr interpolationmode sample-hold
vector 527 scenario.client[7].tcp.conn-127 rcvSeq:vector ETV
attr interpolationmode sample-hold
vector 528 scenario.client[7].tcp.conn-127 rcvAck:vector ETV
attr interpolationmode sample-hold
vector 529 scenario.client[7].tcp.conn-127 unacked:vector ETV
attr interpolationmode sample-hold
vector 530 scenario.client[7].tcp.conn-127 cwnd:vector ETV
attr interpolationmode sample-hold
vector 531 scenario.client[7].tcp.conn-127 ssthresh:vector ETV
attr interpolationmode sample-hold
vector 532 scenario.client[7].tcp.conn-127 dupAcks:vector ETV
attr interpolationmode sample-hold
vector 533 scenario.client[0].tcp.conn-114 rtt:vector ETV
attr interpolationmode sample-hold
vector 534 scenario.client[0].tcp.conn-114 srtt:vector ETV
attr interpolationmode sample-hold
vector 535 scenario.client[0].tcp.conn-114 rttvar:vector ETV
attr interpolationmode sample-hold
vector 536 scenario.client[0].tcp.conn-114 rto:vector ETV
attr interpolationmode sample-hold
vector 537 scenario.client[0].tcp.conn-114 cwnd:vector ETV
attr interpolationmode sample-hold
vector 538 scenario.client[0].tcp.conn-114 ssthresh:vector ETV
attr interpolationmode sample-hold
vector 539 scenario.client[0].tcp.conn-114 dupAcks:vector ETV
attr interpolationmode sample-hold
vector 540 scenario.client[1].tcp.conn-115 rtt:vector ETV
attr interpolationmode sample-hold
vector 541 scenario.client[1].tcp.conn-115 srtt:vector ETV
attr interpolationmode sample-hold
vector 542 scenario.client[1].tcp.conn-115 rttvar:vector ETV
attr interpolationmode sample-hold
vector 543 scenario.client[1].tcp.conn-115 rto:vector ETV
attr interpolationmode sample-hold
vector 544 scenario.client[1].tcp.conn-115 cwnd:vector ETV
attr interpolationmode sample-hold
vector 545 scenario.client[1].tcp.conn-115 ssthresh:vector ETV
attr interpolationmode sample-hold
vector 546 scenario.client[1].tcp.conn-115 dupAcks:vector ETV
attr interpolationmode sample-hold
vector 547 scenario.client[2].tcp.conn-116 rtt:vector ETV
attr interpolationmode sample-hold
vector 548 scenario.client[2].tcp.conn-116 srtt:vector ETV
attr interpolationmode sample-hold
vector 549 scenario.client[2].tcp.conn-116 rttvar:vector ETV
attr interpolationmode sample-hold
vector 550 scenario.client[2].tcp.conn-116 rto:vector ETV
attr interpolationmode sample-hold
vector 551 scenario.client[2].tcp.conn-116 cwnd:vector ETV
attr interpolationmode sample-hold
vector 552 scenario.client[2].tcp.conn-116 ssthresh:vector ETV
attr interpolationmode sample-hold
vector 553 scenario.client[2].tcp.conn-116 dupAcks:vector ETV
attr interpolationmode sample-hold
vector 554 scenario.client[3].tcp.conn-117 rtt:vector ETV
attr interpolationmode sample-hold
vector 555 scenario.client[3].tcp.conn-117 srtt:vector ETV
attr interpolationmode sample-hold
vector 556 scenario.client[3].tcp.conn-117 rttvar:vector ETV
attr interpolationmode sample-hold
vector 557 scenario.client[3].tcp.conn-117 rto:vector ETV
attr interpolationmode sample-hold
vector 558 scenario.client[3].tcp.conn-117 cwnd:vector ETV
attr interpolationmode sample-hold
vector 559 scenario.client[3].tcp.conn-117 ssthresh:vector ETV
attr interpolationmode sample-hold
vector 560 scenario.client[3].tcp.conn-117 dupAcks:vector ETV
attr interpolationmode sample-hold
vector 561 scenario.client[4].tcp.conn-118 rtt:vector ETV
attr interpolationmode sample-hold
vector 562 scenario.client[4].tcp.conn-118 srtt:vector ETV
attr interpolationmode sample-hold
vector 563 scenario.client[4].tcp.conn-118 rttvar:vector ETV
attr interpolationmode sample-hold
vector 564 scenario.client[4].tcp.conn-118 rto:vector ETV
attr interpolationmode sample-hold
vector 565 scenario.client[4].tcp.conn-118 cwnd:vector ETV
attr interpolationmode sample-hold
vector 566 scenario.client[4].tcp.conn-118 ssthresh:vector ETV
attr interpolationmode sample-hold
vector 567 scenario.client[4].tcp.conn-118 dupAcks:vector ETV
attr interpolationmode sample-hold
vector 568 scenario.client[5].tcp.conn-119 rtt:vector ETV
attr interpolationmode sample-hold
vector 569 scenario.client[5].tcp.conn-119 srtt:vector ETV
attr interpolationmode sample-hold
vector 570 scenario.client[5].tcp.conn-119 rttvar:vector ETV
attr interpolationmode sample-hold
vector 571 scenario.client[5].tcp.conn-119 rto:vector ETV
attr interpolationmode sample-hold
vector 572 scenario.client[5].tcp.conn-119 cwnd:vector ETV
attr interpolationmode sample-hold
vector 573 scenario.client[5].tcp.conn-119 ssthresh:vector ETV
attr interpolationmode sample-hold
vector 574 scenario.client[5].tcp.conn-119 dupAcks:vector ETV
attr interpolationmode sample-hold
vector 575 scenario.client[6].tcp.conn-120 rtt:vector ETV
attr interpolationmode sample-hold
vector 576 scenario.client[6].tcp.conn-120 srtt:vector ETV
attr interpolationmode sample-hold
vector 577 scenario.client[6].tcp.conn-120 rttvar:vector ETV
attr interpolationmode sample-hold
vector 578 scenario.client[6].tcp.conn-120 rto:vector ETV
attr interpolationmode sample-hold
vector 579 scenario.client[6].tcp.conn-120 cwnd:vector ETV
attr interpolationmode sample-hold
vector 580 scenario.client[6].tcp.conn-120 ssthresh:vector ETV
attr interpolationmode sample-hold
vector 581 scenario.client[6].tcp.conn-120 dupAcks:vector ETV
attr interpolationmode sample-hold
vector 582 scenario.client[5].tcp.conn-128 tcpRcvQueueBytes:vector ETV
attr interpolationmode sample-hold
vector 583 scenario.client[5].tcp.conn-128 rcvAdv:vector ETV
attr interpolationmode sample-hold
vector 584 scenario.client[5].tcp.conn-128 rcvWnd:vector ETV
attr interpolationmode sample-hold
vector 585 scenario.client[5].tcp.conn-128 sndAck:vector ETV
attr interpolationmode sample-hold
vector 586 scenario.client[5].tcp.conn-129 tcpRcvQueueBytes:vector ETV
attr interpolationmode sample-hold
vector 587 scenario.client[5].tcp.conn-129 rcvAdv:vector ETV
attr interpolationmode sample-hold
vector 588 scenario.client[5].tcp.conn-129 rcvWnd:vector ETV
attr interpolationmode sample-hold
vector 589 scenario.client[5].tcp.conn-129 sndAck:vector ETV
attr interpolationmode sample-hold
vector 590 scenario.client[5].tcp.conn-130 tcpRcvQueueBytes:vector ETV
attr interpolationmode sample-hold
vector 591 scenario.client[5].tcp.conn-130 rcvAdv:vector ETV
attr interpolationmode sample-hold
vector 592 scenario.client[5].tcp.conn-130 rcvWnd:vector ETV
attr interpolationmode sample-hold
vector 593 scenario.client[5].tcp.conn-130 sndAck:vector ETV
attr interpolationmode sample-hold
vector 594 scenario.client[5].tcp.conn-131 tcpRcvQueueBytes:vector ETV
attr interpolationmode sample-hold
vector 595 scenario.client[5].tcp.conn-131 rcvAdv:vector ETV
attr interpolationmode sample-hold
vector 596 scenario.client[5].tcp.conn-131 rcvWnd:vector ETV
attr interpolationmode sample-hold
vector 597 scenario.client[5].tcp.conn-131 sndAck:vector ETV
attr interpolationmode sample-hold
vector 598 scenario.client[5].tcp.conn-132 tcpRcvQueueBytes:vector ETV
attr interpolationmode sample-hold
vector 599 scenario.client[5].tcp.conn-132 rcvAdv:vector ETV
attr interpolationmode sample-hold
vector 600 scenario.client[5].tcp.conn-132 rcvWnd:vector ETV
attr interpolationmode sample-hold
vector 601 scenario.client[5].tcp.conn-132 sndAck:vector ETV
attr interpolationmode sample-hold
vector 602 scenario.client[5].tcp.conn-133 tcpRcvQueueBytes:vector ETV
attr interpolationmode sample-hold
vector 603 scenario.client[5].tcp.conn-133 rcvAdv:vector ETV
attr interpolationmode sample-hold
vector 604 scenario.client[5].tcp.conn-133 rcvWnd:vector ETV
attr interpolationmode sample-hold
vector 605 scenario.client[5].tcp.conn-133 sndAck:vector ETV
attr interpolationmode sample-hold
vector 606 scenario.client[5].ppp[0].ppp rcvdPkFromHl:vector(packetBytes) ETV
attr interpolationmode none
attr source packetReceivedFromUpper
attr title "packets received from higher layer, vector(packetBytes)"
vector 607 scenario.client[5].ppp[0].ppp.queue packetPushed:vector(packetBytes) ETV
attr interpolationmode none
attr title "packet pushed, vector(packetBytes)"
vector 608 scenario.client[5].ppp[0].ppp.queue queueLength:vector ETV
attr interpolationmode sample-hold
attr source "count(packetPushed) - count(packetPopped) - count(packetRemoved) - count(packetDropped)"
attr title "queue length, vector"
vector 609 scenario.client[5].ppp[0].ppp.queue packetPopped:vector(packetBytes) ETV
attr interpolationmode none
attr title "packet popped, vector(packetBytes)"
vector 610 scenario.client[5].ppp[0].ppp.queue queueingTime:vector ETV
attr interpolationmode none
attr source queueingTime(packetPopped)
attr title "queueing times, vector"
attr unit s
vector 611 scenario.client[5].ppp[0].ppp txPk:vector(packetBytes) ETV
attr interpolationmode none
attr source packetSentToLower
attr title "packets transmitted, vector(packetBytes)"
vector 612 scenario.client[5].ppp[1].ppp rcvdPkFromHl:vector(packetBytes) ETV
attr interpolationmode none
attr source packetReceivedFromUpper
attr title "packets received from higher layer, vector(packetBytes)"
vector 613 scenario.client[5].ppp[1].ppp.queue packetPushed:vector(packetBytes) ETV
attr interpolationmode none
attr title "packet pushed, vector(packetBytes)"
vector 614 scenario.client[5].ppp[1].ppp.queue queueLength:vector ETV
attr interpolationmode sample-hold
attr source "count(packetPushed) - count(packetPopped) - count(packetRemoved) - count(packetDropped)"
attr title "queue length, vector"
vector 615 scenario.client[5].ppp[1].ppp.queue packetPopped:vector(packetBytes) ETV
attr interpolationmode none
attr title "packet popped, vector(packetBytes)"
vector 616 scenario.client[5].ppp[1].ppp.queue queueingTime:vector ETV
attr interpolationmode none
attr source queueingTime(packetPopped)
attr title "queueing times, vector"
attr unit s
vector 617 scenario.client[5].ppp[1].ppp txPk:vector(packetBytes) ETV
attr interpolationmode none
attr source packetSentToLower
attr title "packets transmitted, vector(packetBytes)"
vector 618 scenario.client[5].ppp[2].ppp rcvdPkFromHl:vector(packetBytes) ETV
attr interpolationmode none
attr source packetReceivedFromUpper
attr title "packets received from higher layer, vector(packetBytes)"
vector 619 scenario.client[5].ppp[2].ppp.queue packetPushed:vector(packetBytes) ETV
attr interpolationmode none
attr title "packet pushed, vector(packetBytes)"
vector 620 scenario.client[5].ppp[2].ppp.queue queueLength:vector ETV
attr interpolationmode sample-hold
attr source "count(packetPushed) - count(packetPopped) - count(packetRemoved) - count(packetDropped)"
attr title "queue length, vector"
vector 621 scenario.client[5].ppp[2].ppp.queue packetPopped:vector(packetBytes) ETV
attr interpolationmode none
attr title "packet popped, vector(packetBytes)"
vector 622 scenario.client[5].ppp[2].ppp.queue queueingTime:vector ETV
attr interpolationmode none
attr source queueingTime(packetPopped)
attr title "queueing times, vector"
attr unit s
[...]
3117	49421	6.308444	40
3117	49439	6.308444	41
3117	49487	6.308828	40
3118	16675	3.004288	1
3118	16675	3.004288	0
3118	19873	3.005196	1
3118	19873	3.005196	0
3118	22569	3.006104	1
3118	22569	3.006104	0
3118	23674	3.006988	1
3118	23674	3.006988	0
3118	24242	3.007244	1
3118	24321	3.007364	0
3118	25459	3.008248	1
3118	25459	3.008248	0
3118	27009	3.00878	1
3118	27009	3.00878	0
3118	28236	3.009664	1
3118	28236	3.009664	0
3118	36773	3.016576	1
3118	36773	3.016576	0
3118	37828	3.01746	1
3118	37828	3.01746	0
3118	38623	3.017964	1
3118	38623	3.017964	0
3118	39417	3.018724	1
3118	39417	3.018724	0
3118	39429	3.018724	1
3118	39482	3.018848	2
3118	39519	3.018848	3
3118	39788	3.019108	2
3118	40462	3.019492	1
3118	40513	3.019608	2
3118	40810	3.019868	1
3118	40897	3.019992	2
3118	41263	3.020252	1
3118	41730	3.020628	0
3118	41826	3.020752	1
3118	42186	3.021004	0
3118	46274	6.300884	1
3118	46274	6.300884	0
3118	46292	6.300884	1
3118	46298	6.30126	0
3118	46508	6.303404	1
3118	46508	6.303404	0
3118	46687	6.303404	1
3118	46688	6.303404	2
3118	46694	6.30378	1
3118	46748	6.304164	0
3118	47900	6.305924	1
3118	47900	6.305924	0
3118	48079	6.305924	1
3118	48080	6.305924	2
3118	48092	6.3063	1
3118	48176	6.306308	2
3118	48287	6.306684	1
3118	48731	6.307068	0
3118	49421	6.308444	1
3118	49421	6.308444	0
3118	49439	6.308444	1
3118	49451	6.30882	0
3118	49487	6.308828	1
3118	49598	6.309204	0
3119	16675	3.004288	44
3119	19873	3.005196	44
3119	22569	3.006104	41
3119	23674	3.006988	40
3119	24321	3.007364	41
3119	25459	3.008248	40
3119	27009	3.00878	41
3119	28236	3.009664	40
3119	36773	3.016576	41
3119	37828	3.01746	40
3119	38623	3.017964	41
3119	39417	3.018724	41
3119	39788	3.019108	41
3119	40462	3.019492	40
3119	40810	3.019868	41
3119	41263	3.020252	40
3119	41730	3.020628	40
3119	42186	3.021004	40
3119	46274	6.300884	40
3119	46298	6.30126	41
3119	46508	6.303404	40
3119	46694	6.30378	41
3119	46748	6.304164	41
3119	47900	6.305924	40
3119	48092	6.3063	41
3119	48287	6.306684	41
3119	48731	6.307068	40
3119	49421	6.308444	40
3119	49451	6.30882	41
3119	49598	6.309204	40
3120	16675	3.004288	0
3120	19873	3.005196	0
3120	22569	3.006104	0
3120	23674	3.006988	0
3120	24321	3.007364	0.00012
3120	25459	3.008248	0
3120	27009	3.00878	0
3120	28236	3.009664	0
3120	36773	3.016576	0
3120	37828	3.01746	0
3120	38623	3.017964	0
3120	39417	3.018724	0
3120	39788	3.019108	0.000384
3120	40462	3.019492	0.000644
3120	40810	3.019868	0.00102
3120	41263	3.020252	0.000644
3120	41730	3.020628	0.000636
3120	42186	3.021004	0.000252
3120	46274	6.300884	0
3120	46298	6.30126	0.000376
3120	46508	6.303404	0
3120	46694	6.30378	0.000376
3120	46748	6.304164	0.00076
3120	47900	6.305924	0
3120	48092	6.3063	0.000376
3120	48287	6.306684	0.00076
3120	48731	6.307068	0.00076
3120	49421	6.308444	0
3120	49451	6.30882	0.000376
3120	49598	6.309204	0.000376
3121	16675	3.004288	51
3121	19873	3.005196	51
3121	22569	3.006104	48
3121	23674	3.006988	47
3121	24321	3.007364	48
3121	25459	3.008248	47
3121	27009	3.00878	48
3121	28236	3.009664	47
3121	36773	3.016576	48
3121	37828	3.01746	47
3121	38623	3.017964	48
3121	39417	3.018724	48
3121	39788	3.019108	48
3121	40462	3.019492	47
3121	40810	3.019868	48
3121	41263	3.020252	47
3121	41730	3.020628	47
3121	42186	3.021004	47
3121	46274	6.300884	47
3121	46298	6.30126	48
3121	46508	6.303404	47
3121	46694	6.30378	48
3121	46748	6.304164	48
3121	47900	6.305924	47
3121	48092	6.3063	48
3121	48287	6.306684	48
3121	48731	6.307068	47
3121	49421	6.308444	47
3121	49451	6.30882	48
3121	49598	6.309204	47
3122	19865	3.005196	51
3122	22559	3.006104	51
3122	23663	3.006988	48
3122	24890	3.007864	47
3122	25419	3.008248	48
3122	27402	3.009124	47
3122	28196	3.009664	48
3122	29623	3.01054	47
3122	37723	3.01746	48
3122	38960	3.018336	47
3122	39466	3.018848	48
3122	40503	3.019608	48
3122	40887	3.019992	48
3122	41274	3.020368	47
3122	41751	3.020752	48
3122	42197	3.021128	47
3122	42527	3.021504	47
3122	42817	3.02188	47
3122	46238	6.300884	48
3122	46400	6.30302	47
3122	46418	6.303404	48
3122	47555	6.30554	47
3122	47777	6.305924	48
3122	48098	6.306308	48
3122	48281	6.306684	47
3122	49130	6.30806	47
3122	49352	6.308444	48
3122	49457	6.308828	48
3122	49592	6.309204	47
3122	49700	6.31058	47
3123	19865	3.005196	44
3123	22559	3.006104	44
3123	23663	3.006988	41
3123	24890	3.007864	40
3123	25419	3.008248	41
3123	27402	3.009124	40
3123	28196	3.009664	41
3123	29623	3.01054	40
3123	37723	3.01746	41
3123	38960	3.018336	40
3123	39466	3.018848	41
3123	40503	3.019608	41
3123	40887	3.019992	41
3123	41274	3.020368	40
3123	41751	3.020752	41
3123	42197	3.021128	40
3123	42527	3.021504	40
3123	42817	3.02188	40
3123	46238	6.300884	41
3123	46400	6.30302	40
3123	46418	6.303404	41
3123	47555	6.30554	40
3123	47777	6.305924	41
3123	48098	6.306308	41
3123	48281	6.306684	40
3123	49130	6.30806	40
3123	49352	6.308444	41
3123	49457	6.308828	41
3123	49592	6.309204	40
3123	49700	6.31058	40
3124	19866	3.005196	51
3124	22558	3.006104	51
3124	23664	3.006988	48
3124	24889	3.007864	47
3124	25418	3.008248	48
3124	27403	3.009124	47
3124	28197	3.009664	48
3124	29622	3.01054	47
3124	37729	3.01746	48
3124	38959	3.018336	47
3124	39467	3.018848	48
3124	40504	3.019608	48
3124	40888	3.019992	48
3124	41275	3.020368	47
3124	41752	3.020752	48
3124	42198	3.021128	47
3124	42528	3.021504	47
3124	42818	3.02188	47
3124	46310	6.30176	47
3124	46328	6.302144	48
3124	46754	6.30428	47
3124	47186	6.304664	48
3124	47336	6.305048	48
3124	48305	6.3068	47
3124	48737	6.307184	48
3124	48893	6.307568	48
3124	49106	6.307944	47
3124	49616	6.30932	47
3124	49640	6.309704	48
3124	49676	6.31008	47
3125	19866	3.005196	44
3125	22558	3.006104	44
3125	23664	3.006988	41
3125	24889	3.007864	40
3125	25418	3.008248	41
3125	27403	3.009124	40
3125	28197	3.009664	41
3125	29622	3.01054	40
3125	37729	3.01746	41
3125	38959	3.018336	40
3125	39467	3.018848	41
3125	40504	3.019608	41
3125	40888	3.019992	41
3125	41275	3.020368	40
3125	41752	3.020752	41
3125	42198	3.021128	40
3125	42528	3.021504	40
3125	42818	3.02188	40
3125	46310	6.30176	40
3125	46328	6.302144	41
3125	46754	6.30428	40
3125	47186	6.304664	41
3125	47336	6.305048	41
3125	48305	6.3068	40
3125	48737	6.307184	41
3125	48893	6.307568	41
3125	49106	6.307944	40
3125	49616	6.30932	40
3125	49640	6.309704	41
3125	49676	6.31008	40
3126	19869	3.005196	758577
3126	19869	3.005196	758577
3126	23667	3.006988	758577
3126	25435	3.008248	758579
3126	28212	3.009664	758580
3126	37747	3.01746	758581
3126	39470	3.018848	758582
3126	40507	3.019608	758583
3126	40891	3.019992	758584
3126	41790	3.020752	758585
3126	46250	6.300884	758586
3126	46430	6.303404	758587
3126	47822	6.305924	758588
3126	48158	6.306308	758589
3126	49397	6.308444	758590
3126	49469	6.308828	758591
3127	19869	3.005196	7504
3127	23667	3.006988	7504
3128	19869	3.005196	0
3128	23667	3.006988	0
3128	23667	3.006988	1
3128	25435	3.008248	0
3128	25435	3.008248	0
3128	28212	3.009664	0
3128	28212	3.009664	0
3128	37747	3.01746	0
3128	37747	3.01746	0
3128	39470	3.018848	0
3128	39470	3.018848	0
3128	40507	3.019608	0
3128	40507	3.019608	0
3128	40891	3.019992	0
3128	40891	3.019992	0
3128	41790	3.020752	0
3128	41790	3.020752	0
3128	46250	6.300884	0
3128	46250	6.300884	0
3128	46430	6.303404	0
3128	46430	6.303404	0
3128	47822	6.305924	0
3128	47822	6.305924	0
3128	48158	6.306308	0
3128	48158	6.306308	0
3128	49397	6.308444	0
3128	49397	6.308444	0
3128	49469	6.308828	0
3128	49469	6.308828	0
3129	19869	3.005196	7504
3129	23667	3.006988	7503
3129	25435	3.008248	7504
3129	28212	3.009664	7504
3129	37747	3.01746	7504
3129	39470	3.018848	7504
3129	40507	3.019608	7504
3129	40891	3.019992	7504
3129	41790	3.020752	7504
3129	46250	6.300884	7504
3129	46430	6.303404	7504
3129	47822	6.305924	7504
3129	48158	6.306308	7504
3129	49397	6.308444	7504
3129	49469	6.308828	7504
3130	19869	3.005196	751073
3130	23667	3.006988	751074
3130	25435	3.008248	751075
3130	28212	3.009664	751076
3130	37747	3.01746	751077
3130	39470	3.018848	751078
3130	40507	3.019608	751079
3130	40891	3.019992	751080
3130	41790	3.020752	751081
3130	46250	6.300884	751082
3130	46430	6.303404	751083
3130	47822	6.305924	751084
3130	48158	6.306308	751085
3130	49397	6.308444	751086
3130	49469	6.308828	751087
3131	19870	3.005196	758577
3131	19870	3.005196	758577
3131	23668	3.006988	758577
3131	25434	3.008248	758579
3131	28213	3.009664	758580
3131	37753	3.01746	758581
3131	39471	3.018848	758582
3131	40508	3.019608	758583
3131	40892	3.019992	758584
3131	41791	3.020752	758585
3131	46340	6.302144	758586
3131	47246	6.304664	758587
3131	47381	6.305048	758588
3131	48797	6.307184	758589
3131	48938	6.307568	758590
3131	49652	6.309704	758591
3132	19870	3.005196	7504
3132	23668	3.006988	7504
3133	19870	3.005196	0
3133	23668	3.006988	0
3133	23668	3.006988	1
3133	25434	3.008248	0
3133	25434	3.008248	0
3133	28213	3.009664	0
3133	28213	3.009664	0
3133	37753	3.01746	0
3133	37753	3.01746	0
3133	39471	3.018848	0
3133	39471	3.018848	0
3133	40508	3.019608	0
3133	40508	3.019608	0
3133	40892	3.019992	0
3133	40892	3.019992	0
3133	41791	3.020752	0
3133	41791	3.020752	0
3133	46340	6.302144	0
3133	46340	6.302144	0
3133	47246	6.304664	0
3133	47246	6.304664	0
3133	47381	6.305048	0
3133	47381	6.305048	0
3133	48797	6.307184	0
3133	48797	6.307184	0
3133	48938	6.307568	0
3133	48938	6.307568	0
3133	49652	6.309704	0
3133	49652	6.309704	0
3134	19870	3.005196	7504
3134	23668	3.006988	7503
3134	25434	3.008248	7504
3134	28213	3.009664	7504
3134	37753	3.01746	7504
3134	39471	3.018848	7504
3134	40508	3.019608	7504
3134	40892	3.019992	7504
3134	41791	3.020752	7504
3134	46340	6.302144	7504
3134	47246	6.304664	7504
3134	47381	6.305048	7504
3134	48797	6.307184	7504
3134	48938	6.307568	7504
3134	49652	6.309704	7504
3135	19870	3.005196	751073
3135	23668	3.006988	751074
3135	25434	3.008248	751075
3135	28213	3.009664	751076
3135	37753	3.01746	751077
3135	39471	3.018848	751078
3135	40508	3.019608	751079
3135	40892	3.019992	751080
3135	41791	3.020752	751081
3135	46340	6.302144	751082
3135	47246	6.304664	751083
3135	47381	6.305048	751084
3135	48797	6.307184	751085
3135	48938	6.307568	751086
3135	49652	6.309704	751087
3136	22562	3.006104	751298
3136	24905	3.007864	751299
3136	27447	3.009124	751299
3136	29626	3.01054	751299
3136	38963	3.018336	751299
3136	41309	3.020368	751299
3136	42217	3.021128	751299
3136	42547	3.021504	751299
3136	42837	3.02188	751299
3136	46322	6.30176	751299
3136	46766	6.30428	751299
3136	48317	6.3068	751299
3136	49124	6.307944	751299
3136	49628	6.30932	751299
3136	49694	6.31008	751299
3137	22562	3.006104	751073
3137	24905	3.007864	751074
3137	27447	3.009124	751075
3137	29626	3.01054	751076
3137	38963	3.018336	751077
3137	41309	3.020368	751078
3137	42217	3.021128	751079
3137	42547	3.021504	751080
3137	42837	3.02188	751081
3137	46322	6.30176	751082
3137	46766	6.30428	751083
3137	48317	6.3068	751084
3137	49124	6.307944	751085
3137	49628	6.30932	751086
3137	49694	6.31008	751087
3138	22562	3.006104	7504
3138	24905	3.007864	7503
3138	27447	3.009124	7504
3138	29626	3.01054	7504
3138	38963	3.018336	7504
3138	41309	3.020368	7504
3138	42217	3.021128	7504
3138	42547	3.021504	7504
3138	42837	3.02188	7504
3138	46322	6.30176	7504
3138	46766	6.30428	7504
3138	48317	6.3068	7504
3138	49124	6.307944	7504
3138	49628	6.30932	7504
3138	49694	6.31008	7504
3139	22562	3.006104	1
3139	24197	3.007244	2
3139	24905	3.007864	1
3139	26964	3.00878	2
3139	27447	3.009124	1
3139	29626	3.01054	0
3139	36728	3.016576	1
3139	38593	3.017964	2
3139	38963	3.018336	1
3139	39363	3.018724	2
3139	39375	3.018724	3
3139	39501	3.018848	4
3139	41309	3.020368	3
3139	42217	3.021128	2
3139	42547	3.021504	1
3139	42837	3.02188	0
3139	46214	6.3	1
3139	46322	6.30176	0
3139	46370	6.302144	1
3139	46766	6.30428	0
3139	47288	6.304664	1
3139	47294	6.304664	2
3139	48317	6.3068	1
3139	48839	6.307184	2
3139	48845	6.307184	3
3139	49124	6.307944	2
3139	49628	6.30932	1
3139	49694	6.31008	0
3140	22563	3.006104	751298
3140	24906	3.007864	751299
3140	27446	3.009124	751299
3140	29627	3.01054	751299
3140	38964	3.018336	751299
3140	41308	3.020368	751299
3140	42216	3.021128	751299
3140	42546	3.021504	751299
3140	42836	3.02188	751299
3140	46412	6.30302	751299
3140	47567	6.30554	751299
3140	48299	6.306684	751299
3140	49142	6.30806	751299
3140	49610	6.309204	751299
3140	49712	6.31058	751299
3141	22563	3.006104	751073
3141	24906	3.007864	751074
3141	27446	3.009124	751075
3141	29627	3.01054	751076
3141	38964	3.018336	751077
3141	41308	3.020368	751078
3141	42216	3.021128	751079
3141	42546	3.021504	751080
3141	42836	3.02188	751081
3141	46412	6.30302	751082
3141	47567	6.30554	751083
3141	48299	6.306684	751084
3141	49142	6.30806	751085
3141	49610	6.309204	751086
3141	49712	6.31058	751087
3142	22563	3.006104	7504
3142	24906	3.007864	7503
3142	27446	3.009124	7504
3142	29627	3.01054	7504
3142	38964	3.018336	7504
3142	41308	3.020368	7504
3142	42216	3.021128	7504
3142	42546	3.021504	7504
3142	42836	3.02188	7504
3142	46412	6.30302	7504
3142	47567	6.30554	7504
3142	48299	6.306684	7504
3142	49142	6.30806	7504
3142	49610	6.309204	7504
3142	49712	6.31058	7504
3143	22563	3.006104	1
3143	24206	3.007244	2
3143	24906	3.007864	1
3143	26973	3.00878	2
3143	27446	3.009124	1
3143	29627	3.01054	0
3143	36737	3.016576	1
3143	38599	3.017964	2
3143	38964	3.018336	1
3143	39369	3.018724	2
3143	39381	3.018724	3
3143	39495	3.018848	4
3143	41308	3.020368	3
3143	42216	3.021128	2
3143	42546	3.021504	1
3143	42836	3.02188	0
3143	46280	6.300884	1
3143	46412	6.30302	0
3143	46567	6.303404	1
3143	46568	6.303404	2
3143	47567	6.30554	1
3143	47959	6.305924	2
3143	47960	6.305924	3
3143	48299	6.306684	2
3143	49142	6.30806	1
3143	49427	6.308444	2
3143	49610	6.309204	1
3143	49712	6.31058	0
3144	23667	3.006988	751073
3144	25435	3.008248	751074
3144	28212	3.009664	751075
3144	37747	3.01746	751076
3144	39470	3.018848	751077
3144	40507	3.019608	751078
3144	40891	3.019992	751079
3144	41790	3.020752	751080
3144	46250	6.300884	751081
3144	46430	6.303404	751082
3144	47822	6.305924	751083
3144	48158	6.306308	751084
3144	49397	6.308444	751085
3144	49469	6.308828	751086
3145	23667	3.006988	751299
3145	25435	3.008248	751299
3145	28212	3.009664	751299
3145	37747	3.01746	751299
3145	39470	3.018848	751299
3145	40507	3.019608	751299
3145	40891	3.019992	751299
3145	41790	3.020752	751299
3145	46250	6.300884	751299
3145	46430	6.303404	751299
3145	47822	6.305924	751299
3145	48158	6.306308	751299
3145	49397	6.308444	751299
3145	49469	6.308828	751299
3146	23667	3.006988	0
3147	23667	3.006988	1072
3148	23667	3.006988	4294967295
3149	23667	3.006988	0
3149	25435	3.008248	0
3149	28212	3.009664	0
3149	37747	3.01746	0
3149	39470	3.018848	0
3149	40507	3.019608	0
3149	40891	3.019992	0
3149	41790	3.020752	0
3149	46250	6.300884	0
3149	46430	6.303404	0
3149	47822	6.305924	0
3149	48158	6.306308	0
3149	49397	6.308444	0
3149	49469	6.308828	0
3150	23668	3.006988	751073
3150	25434	3.008248	751074
3150	28213	3.009664	751075
3150	37753	3.01746	751076
3150	39471	3.018848	751077
3150	40508	3.019608	751078
3150	40892	3.019992	751079
3150	41791	3.020752	751080
3150	46340	6.302144	751081
3150	47246	6.304664	751082
3150	47381	6.305048	751083
3150	48797	6.307184	751084
3150	48938	6.307568	751085
3150	49652	6.309704	751086
3151	23668	3.006988	751299
3151	25434	3.008248	751299
3151	28213	3.009664	751299
3151	37753	3.01746	751299
3151	39471	3.018848	751299
3151	40508	3.019608	751299
3151	40892	3.019992	751299
3151	41791	3.020752	751299
3151	46340	6.302144	751299
3151	47246	6.304664	751299
3151	47381	6.305048	751299
3151	48797	6.307184	751299
3151	48938	6.307568	751299
3151	49652	6.309704	751299
3152	23668	3.006988	0
3153	23668	3.006988	1072
3154	23668	3.006988	4294967295
3155	23668	3.006988	0
3155	25434	3.008248	0
3155	28213	3.009664	0
3155	37753	3.01746	0
3155	39471	3.018848	0
3155	40508	3.019608	0
3155	40892	3.019992	0
3155	41791	3.020752	0
3155	46340	6.302144	0
3155	47246	6.304664	0
3155	47381	6.305048	0
3155	48797	6.307184	0
3155	48938	6.307568	0
3155	49652	6.309704	0
3156	24905	3.007864	0.00176
3156	29626	3.01054	0.00176
3156	38963	3.018336	0.00176
3156	42217	3.021128	0.002404
3156	46322	6.30176	0.00176
3156	46766	6.30428	0.002136
3156	48317	6.3068	0.002136
3156	49628	6.30932	0.002136
3157	24905	3.007864	0.00022
3157	29626	3.01054	0.0004125
3157	38963	3.018336	0.0005809375
3157	42217	3.021128	0.000808820313
3157	46322	6.30176	0.000927717774
3157	46766	6.30428	0.001078753052
3157	48317	6.3068	0.001210908921
3157	49628	6.30932	0.001326545306
3158	24905	3.007864	0.65647
3158	29626	3.01054	0.57460375
3158	38963	3.018336	0.50294671875
3158	42217	3.021128	0.440306261719
3158	46322	6.30176	0.385386876465
3158	46766	6.30428	0.337364552185
3158	48317	6.3068	0.29532613903
3158	49628	6.30932	0.258526008036
3159	24905	3.007864	2.6261
3159	29626	3.01054	2.2988275
3159	38963	3.018336	2.0123678125
3159	42217	3.021128	1.762033867189
3159	46322	6.30176	1.542475223634
3159	46766	6.30428	1.350536961792
3159	48317	6.3068	1.182515465041
3159	49628	6.30932	1.03543057745
3160	24905	3.007864	1072
3160	27447	3.009124	1608
3160	29626	3.01054	2144
3160	38963	3.018336	2680
3160	41309	3.020368	3216
3160	42217	3.021128	3752
3160	42547	3.021504	4288
3160	42837	3.02188	4824
3160	46322	6.30176	1072
3160	46766	6.30428	1608
3160	48317	6.3068	2144
3160	49124	6.307944	2680
3160	49628	6.30932	3216
3160	49694	6.31008	3752
3161	24905	3.007864	4294967295
3161	27447	3.009124	4294967295
3161	29626	3.01054	4294967295
3161	38963	3.018336	4294967295
3161	41309	3.020368	4294967295
3161	42217	3.021128	4294967295
3161	42547	3.021504	4294967295
3161	42837	3.02188	4294967295
3161	46322	6.30176	4294967295
3161	46766	6.30428	4294967295
3161	48317	6.3068	4294967295
3161	49124	6.307944	4294967295
3161	49628	6.30932	4294967295
3161	49694	6.31008	4294967295
3162	24905	3.007864	0
3162	27447	3.009124	0
3162	29626	3.01054	0
3162	38963	3.018336	0
3162	41309	3.020368	0
3162	42217	3.021128	0
3162	42547	3.021504	0
3162	42837	3.02188	0
3162	46322	6.30176	0
3162	46766	6.30428	0
3162	48317	6.3068	0
3162	49124	6.307944	0
3162	49628	6.30932	0
3162	49694	6.31008	0
3163	24906	3.007864	0.00176
3163	29627	3.01054	0.00176
3163	38964	3.018336	0.00176
3163	42216	3.021128	0.002404
3163	46412	6.30302	0.002136
3163	47567	6.30554	0.002136
3163	49142	6.30806	0.002136
3163	49712	6.31058	0.002136
3164	24906	3.007864	0.00022
3164	29627	3.01054	0.0004125
3164	38964	3.018336	0.0005809375
3164	42216	3.021128	0.000808820313
3164	46412	6.30302	0.000974717774
3164	47567	6.30554	0.001119878052
3164	49142	6.30806	0.001246893296
3164	49712	6.31058	0.001358031634
3165	24906	3.007864	0.65647
3165	29627	3.01054	0.57460375
3165	38964	3.018336	0.50294671875
3165	42216	3.021128	0.440306261719
3165	46412	6.30302	0.385433876465
3165	47567	6.30554	0.337399802185
3165	49142	6.30806	0.295351842155
3165	49712	6.31058	0.258544000224
3166	24906	3.007864	2.6261
3166	29627	3.01054	2.2988275
3166	38964	3.018336	2.0123678125
3166	42216	3.021128	1.762033867189
3166	46412	6.30302	1.542710223634
3166	47567	6.30554	1.350719086792
3166	49142	6.30806	1.182654261916
3166	49712	6.31058	1.03553403253
3167	24906	3.007864	1072
3167	27446	3.009124	1608
3167	29627	3.01054	2144
3167	38964	3.018336	2680
3167	41308	3.020368	3216
3167	42216	3.021128	3752
3167	42546	3.021504	4288
3167	42836	3.02188	4824
3167	46412	6.30302	1072
3167	47567	6.30554	1608
3167	48299	6.306684	2144
3167	49142	6.30806	2680
3167	49610	6.309204	3216
3167	49712	6.31058	3752
3168	24906	3.007864	4294967295
3168	27446	3.009124	4294967295
3168	29627	3.01054	4294967295
3168	38964	3.018336	4294967295
3168	41308	3.020368	4294967295
3168	42216	3.021128	4294967295
3168	42546	3.021504	4294967295
3168	42836	3.02188	4294967295
3168	46412	6.30302	4294967295
3168	47567	6.30554	4294967295
3168	48299	6.306684	4294967295
3168	49142	6.30806	4294967295
3168	49610	6.309204	4294967295
3168	49712	6.31058	4294967295
3169	24906	3.007864	0
3169	27446	3.009124	0
3169	29627	3.01054	0
3169	38964	3.018336	0
3169	41308	3.020368	0
3169	42216	3.021128	0
3169	42546	3.021504	0
3169	42836	3.02188	0
3169	46412	6.30302	0
3169	47567	6.30554	0
3169	48299	6.306684	0
3169	49142	6.30806	0
3169	49610	6.309204	0
3169	49712	6.31058	0

