file 3822506 1643642569                                         
version 2
run BROADCAST10-0-20220131-16:22:43-6656
attr configname BROADCAST10
attr datetime 20220131-16:22:43
attr experiment BROADCAST10
attr inifile omnetpp.ini
attr iterationvars ""
attr iterationvarsf ""
attr measurement ""
attr network scenario
attr processid 6656
attr repetition 0
attr replication #0
attr resultdir results
attr runnumber 0
attr seedset 0
param *.n 10
param **.client[*].app[0].nPar 10
param **.client[*].app[0].nNPar 2
param **.client[5].app[0].leave 1.0
param **.client[6].app[0].leave 2.0
param **.client[7].app[0].leave 0
param **.client[8].app[0].join 1.5
param **.client[9].app[0].join 2.3
param **.client[8].app[0].broadcast 1.3
param **.client[0].app[0].broadcast 1.8
param **.client[1].app[0].broadcast 2.1
param **.ppp[*].ppp.queue.typename "\"DropTailQueue\""
param **.tcp.typename "\"Tcp\""
param **.tcp.nagleEnabled false
param **.client[*].app[*].fPar 0
param **.numApps 1
param **.client[*].app[*].typename "\"Node\""
param **.client[*].app[0].localPort index+1000
param **.client[*].app[0].localPortL 1234
param **.client[*].app[0].connectAddress "\"\""
param **.client[*].app[0].connectPort 1234

vector 0 scenario.client[0].ppp[0].ppp transmissionState:vector ETV
attr interpolationmode sample-hold
attr source transmissionStateChanged
attr title "tx state, vector"
vector 1 scenario.client[0].ppp[1].ppp transmissionState:vector ETV
attr interpolationmode sample-hold
attr source transmissionStateChanged
attr title "tx state, vector"
vector 2 scenario.client[0].ppp[2].ppp transmissionState:vector ETV
attr interpolationmode sample-hold
attr source transmissionStateChanged
attr title "tx state, vector"
vector 3 scenario.client[0].ppp[3].ppp transmissionState:vector ETV
attr interpolationmode sample-hold
attr source transmissionStateChanged
attr title "tx state, vector"
vector 4 scenario.client[0].ppp[4].ppp transmissionState:vector ETV
attr interpolationmode sample-hold
attr source transmissionStateChanged
attr title "tx state, vector"
vector 5 scenario.client[0].ppp[5].ppp transmissionState:vector ETV
attr interpolationmode sample-hold
attr source transmissionStateChanged
attr title "tx state, vector"
vector 6 scenario.client[0].ppp[6].ppp transmissionState:vector ETV
attr interpolationmode sample-hold
attr source transmissionStateChanged
attr title "tx state, vector"
vector 7 scenario.client[0].ppp[7].ppp transmissionState:vector ETV
attr interpolationmode sample-hold
attr source transmissionStateChanged
attr title "tx state, vector"
vector 8 scenario.client[0].ppp[8].ppp transmissionState:vector ETV
attr interpolationmode sample-hold
attr source transmissionStateChanged
attr title "tx state, vector"
vector 9 scenario.client[1].ppp[0].ppp transmissionState:vector ETV
attr interpolationmode sample-hold
attr source transmissionStateChanged
attr title "tx state, vector"
vector 10 scenario.client[1].ppp[1].ppp transmissionState:vector ETV
attr interpolationmode sample-hold
attr source transmissionStateChanged
attr title "tx state, vector"
vector 11 scenario.client[1].ppp[2].ppp transmissionState:vector ETV
attr interpolationmode sample-hold
attr source transmissionStateChanged
attr title "tx state, vector"
vector 12 scenario.client[1].ppp[3].ppp transmissionState:vector ETV
attr interpolationmode sample-hold
attr source transmissionStateChanged
attr title "tx state, vector"
vector 13 scenario.client[1].ppp[4].ppp transmissionState:vector ETV
attr interpolationmode sample-hold
attr source transmissionStateChanged
attr title "tx state, vector"
vector 14 scenario.client[1].ppp[5].ppp transmissionState:vector ETV
attr interpolationmode sample-hold
attr source transmissionStateChanged
attr title "tx state, vector"
vector 15 scenario.client[1].ppp[6].ppp transmissionState:vector ETV
attr interpolationmode sample-hold
attr source transmissionStateChanged
attr title "tx state, vector"
vector 16 scenario.client[1].ppp[7].ppp transmissionState:vector ETV
attr interpolationmode sample-hold
attr source transmissionStateChanged
attr title "tx state, vector"
vector 17 scenario.client[1].ppp[8].ppp transmissionState:vector ETV
attr interpolationmode sample-hold
attr source transmissionStateChanged
attr title "tx state, vector"
vector 18 scenario.client[2].ppp[0].ppp transmissionState:vector ETV
attr interpolationmode sample-hold
attr source transmissionStateChanged
attr title "tx state, vector"
vector 19 scenario.client[2].ppp[1].ppp transmissionState:vector ETV
attr interpolationmode sample-hold
attr source transmissionStateChanged
attr title "tx state, vector"
vector 20 scenario.client[2].ppp[2].ppp transmissionState:vector ETV
attr interpolationmode sample-hold
attr source transmissionStateChanged
attr title "tx state, vector"
vector 21 scenario.client[2].ppp[3].ppp transmissionState:vector ETV
attr interpolationmode sample-hold
attr source transmissionStateChanged
attr title "tx state, vector"
vector 22 scenario.client[2].ppp[4].ppp transmissionState:vector ETV
attr interpolationmode sample-hold
attr source transmissionStateChanged
attr title "tx state, vector"
vector 23 scenario.client[2].ppp[5].ppp transmissionState:vector ETV
attr interpolationmode sample-hold
attr source transmissionStateChanged
attr title "tx state, vector"
vector 24 scenario.client[2].ppp[6].ppp transmissionState:vector ETV
attr interpolationmode sample-hold
attr source transmissionStateChanged
attr title "tx state, vector"
vector 25 scenario.client[2].ppp[7].ppp transmissionState:vector ETV
attr interpolationmode sample-hold
attr source transmissionStateChanged
attr title "tx state, vector"
vector 26 scenario.client[2].ppp[8].ppp transmissionState:vector ETV
attr interpolationmode sample-hold
attr source transmissionStateChanged
attr title "tx state, vector"
vector 27 scenario.client[3].ppp[0].ppp transmissionState:vector ETV
attr interpolationmode sample-hold
attr source transmissionStateChanged
attr title "tx state, vector"
vector 28 scenario.client[3].ppp[1].ppp transmissionState:vector ETV
attr interpolationmode sample-hold
attr source transmissionStateChanged
attr title "tx state, vector"
vector 29 scenario.client[3].ppp[2].ppp transmissionState:vector ETV
attr interpolationmode sample-hold
attr source transmissionStateChanged
attr title "tx state, vector"
vector 30 scenario.client[3].ppp[3].ppp transmissionState:vector ETV
attr interpolationmode sample-hold
attr source transmissionStateChanged
attr title "tx state, vector"
vector 31 scenario.client[3].ppp[4].ppp transmissionState:vector ETV
attr interpolationmode sample-hold
attr source transmissionStateChanged
attr title "tx state, vector"
vector 32 scenario.client[3].ppp[5].ppp transmissionState:vector ETV
attr interpolationmode sample-hold
attr source transmissionStateChanged
attr title "tx state, vector"
vector 33 scenario.client[3].ppp[6].ppp transmissionState:vector ETV
attr interpolationmode sample-hold
attr source transmissionStateChanged
attr title "tx state, vector"
vector 34 scenario.client[3].ppp[7].ppp transmissionState:vector ETV
attr interpolationmode sample-hold
attr source transmissionStateChanged
attr title "tx state, vector"
vector 35 scenario.client[3].ppp[8].ppp transmissionState:vector ETV
attr interpolationmode sample-hold
attr source transmissionStateChanged
attr title "tx state, vector"
vector 36 scenario.client[4].ppp[0].ppp transmissionState:vector ETV
attr interpolationmode sample-hold
attr source transmissionStateChanged
attr title "tx state, vector"
vector 37 scenario.client[4].ppp[1].ppp transmissionState:vector ETV
attr interpolationmode sample-hold
attr source transmissionStateChanged
attr title "tx state, vector"
vector 38 scenario.client[4].ppp[2].ppp transmissionState:vector ETV
attr interpolationmode sample-hold
attr source transmissionStateChanged
attr title "tx state, vector"
vector 39 scenario.client[4].ppp[3].ppp transmissionState:vector ETV
attr interpolationmode sample-hold
attr source transmissionStateChanged
attr title "tx state, vector"
vector 40 scenario.client[4].ppp[4].ppp transmissionState:vector ETV
attr interpolationmode sample-hold
attr source transmissionStateChanged
attr title "tx state, vector"
vector 41 scenario.client[4].ppp[5].ppp transmissionState:vector ETV
attr interpolationmode sample-hold
attr source transmissionStateChanged
attr title "tx state, vector"
vector 42 scenario.client[4].ppp[6].ppp transmissionState:vector ETV
attr interpolationmode sample-hold
attr source transmissionStateChanged
attr title "tx state, vector"
vector 43 scenario.client[4].ppp[7].ppp transmissionState:vector ETV
attr interpolationmode sample-hold
attr source transmissionStateChanged
attr title "tx state, vector"
vector 44 scenario.client[4].ppp[8].ppp transmissionState:vector ETV
attr interpolationmode sample-hold
attr source transmissionStateChanged
attr title "tx state, vector"
vector 45 scenario.client[5].ppp[0].ppp transmissionState:vector ETV
attr interpolationmode sample-hold
attr source transmissionStateChanged
attr title "tx state, vector"
vector 46 scenario.client[5].ppp[1].ppp transmissionState:vector ETV
attr interpolationmode sample-hold
attr source transmissionStateChanged
attr title "tx state, vector"
vector 47 scenario.client[5].ppp[2].ppp transmissionState:vector ETV
attr interpolationmode sample-hold
attr source transmissionStateChanged
attr title "tx state, vector"
vector 48 scenario.client[5].ppp[3].ppp transmissionState:vector ETV
attr interpolationmode sample-hold
attr source transmissionStateChanged
attr title "tx state, vector"
vector 49 scenario.client[5].ppp[4].ppp transmissionState:vector ETV
attr interpolationmode sample-hold
attr source transmissionStateChanged
attr title "tx state, vector"
vector 50 scenario.client[5].ppp[5].ppp transmissionState:vector ETV
attr interpolationmode sample-hold
attr source transmissionStateChanged
attr title "tx state, vector"
vector 51 scenario.client[5].ppp[6].ppp transmissionState:vector ETV
attr interpolationmode sample-hold
attr source transmissionStateChanged
attr title "tx state, vector"
vector 52 scenario.client[5].ppp[7].ppp transmissionState:vector ETV
attr interpolationmode sample-hold
attr source transmissionStateChanged
attr title "tx state, vector"
vector 53 scenario.client[5].ppp[8].ppp transmissionState:vector ETV
attr interpolationmode sample-hold
attr source transmissionStateChanged
attr title "tx state, vector"
vector 54 scenario.client[6].ppp[0].ppp transmissionState:vector ETV
attr interpolationmode sample-hold
attr source transmissionStateChanged
attr title "tx state, vector"
vector 55 scenario.client[6].ppp[1].ppp transmissionState:vector ETV
attr interpolationmode sample-hold
attr source transmissionStateChanged
attr title "tx state, vector"
vector 56 scenario.client[6].ppp[2].ppp transmissionState:vector ETV
attr interpolationmode sample-hold
attr source transmissionStateChanged
attr title "tx state, vector"
vector 57 scenario.client[6].ppp[3].ppp transmissionState:vector ETV
attr interpolationmode sample-hold
attr source transmissionStateChanged
attr title "tx state, vector"
vector 58 scenario.client[6].ppp[4].ppp transmissionState:vector ETV
attr interpolationmode sample-hold
attr source transmissionStateChanged
attr title "tx state, vector"
vector 59 scenario.client[6].ppp[5].ppp transmissionState:vector ETV
attr interpolationmode sample-hold
attr source transmissionStateChanged
attr title "tx state, vector"
vector 60 scenario.client[6].ppp[6].ppp transmissionState:vector ETV
attr interpolationmode sample-hold
attr source transmissionStateChanged
attr title "tx state, vector"
vector 61 scenario.client[6].ppp[7].ppp transmissionState:vector ETV
attr interpolationmode sample-hold
attr source transmissionStateChanged
attr title "tx state, vector"
vector 62 scenario.client[6].ppp[8].ppp transmissionState:vector ETV
attr interpolationmode sample-hold
attr source transmissionStateChanged
attr title "tx state, vector"
vector 63 scenario.client[7].ppp[0].ppp transmissionState:vector ETV
attr interpolationmode sample-hold
attr source transmissionStateChanged
attr title "tx state, vector"
vector 64 scenario.client[7].ppp[1].ppp transmissionState:vector ETV
attr interpolationmode sample-hold
attr source transmissionStateChanged
attr title "tx state, vector"
vector 65 scenario.client[7].ppp[2].ppp transmissionState:vector ETV
attr interpolationmode sample-hold
attr source transmissionStateChanged
attr title "tx state, vector"
vector 66 scenario.client[7].ppp[3].ppp transmissionState:vector ETV
attr interpolationmode sample-hold
attr source transmissionStateChanged
attr title "tx state, vector"
vector 67 scenario.client[7].ppp[4].ppp transmissionState:vector ETV
attr interpolationmode sample-hold
attr source transmissionStateChanged
attr title "tx state, vector"
vector 68 scenario.client[7].ppp[5].ppp transmissionState:vector ETV
attr interpolationmode sample-hold
attr source transmissionStateChanged
attr title "tx state, vector"
vector 69 scenario.client[7].ppp[6].ppp transmissionState:vector ETV
attr interpolationmode sample-hold
attr source transmissionStateChanged
attr title "tx state, vector"
vector 70 scenario.client[7].ppp[7].ppp transmissionState:vector ETV
attr interpolationmode sample-hold
attr source transmissionStateChanged
attr title "tx state, vector"
vector 71 scenario.client[7].ppp[8].ppp transmissionState:vector ETV
attr interpolationmode sample-hold
attr source transmissionStateChanged
attr title "tx state, vector"
vector 72 scenario.client[8].ppp[0].ppp transmissionState:vector ETV
attr interpolationmode sample-hold
attr source transmissionStateChanged
attr title "tx state, vector"
vector 73 scenario.client[8].ppp[1].ppp transmissionState:vector ETV
attr interpolationmode sample-hold
attr source transmissionStateChanged
attr title "tx state, vector"
vector 74 scenario.client[8].ppp[2].ppp transmissionState:vector ETV
attr interpolationmode sample-hold
attr source transmissionStateChanged
attr title "tx state, vector"
vector 75 scenario.client[8].ppp[3].ppp transmissionState:vector ETV
attr interpolationmode sample-hold
attr source transmissionStateChanged
attr title "tx state, vector"
vector 76 scenario.client[8].ppp[4].ppp transmissionState:vector ETV
attr interpolationmode sample-hold
attr source transmissionStateChanged
attr title "tx state, vector"
vector 77 scenario.client[8].ppp[5].ppp transmissionState:vector ETV
attr interpolationmode sample-hold
attr source transmissionStateChanged
attr title "tx state, vector"
vector 78 scenario.client[8].ppp[6].ppp transmissionState:vector ETV
attr interpolationmode sample-hold
attr source transmissionStateChanged
attr title "tx state, vector"
vector 79 scenario.client[8].ppp[7].ppp transmissionState:vector ETV
attr interpolationmode sample-hold
attr source transmissionStateChanged
attr title "tx state, vector"
vector 80 scenario.client[8].ppp[8].ppp transmissionState:vector ETV
attr interpolationmode sample-hold
attr source transmissionStateChanged
attr title "tx state, vector"
vector 81 scenario.client[9].ppp[0].ppp transmissionState:vector ETV
attr interpolationmode sample-hold
attr source transmissionStateChanged
attr title "tx state, vector"
vector 82 scenario.client[9].ppp[1].ppp transmissionState:vector ETV
attr interpolationmode sample-hold
attr source transmissionStateChanged
attr title "tx state, vector"
vector 83 scenario.client[9].ppp[2].ppp transmissionState:vector ETV
attr interpolationmode sample-hold
attr source transmissionStateChanged
attr title "tx state, vector"
vector 84 scenario.client[9].ppp[3].ppp transmissionState:vector ETV
attr interpolationmode sample-hold
attr source transmissionStateChanged
attr title "tx state, vector"
vector 85 scenario.client[9].ppp[4].ppp transmissionState:vector ETV
attr interpolationmode sample-hold
attr source transmissionStateChanged
attr title "tx state, vector"
vector 86 scenario.client[9].ppp[5].ppp transmissionState:vector ETV
attr interpolationmode sample-hold
attr source transmissionStateChanged
attr title "tx state, vector"
vector 87 scenario.client[9].ppp[6].ppp transmissionState:vector ETV
attr interpolationmode sample-hold
attr source transmissionStateChanged
attr title "tx state, vector"
vector 88 scenario.client[9].ppp[7].ppp transmissionState:vector ETV
attr interpolationmode sample-hold
attr source transmissionStateChanged
attr title "tx state, vector"
vector 89 scenario.client[9].ppp[8].ppp transmissionState:vector ETV
attr interpolationmode sample-hold
attr source transmissionStateChanged
attr title "tx state, vector"
vector 90 scenario.client[7].tcp.conn-100 tcpRcvQueueBytes:vector ETV
attr interpolationmode sample-hold
vector 91 scenario.client[7].tcp.conn-100 rcvAdv:vector ETV
attr interpolationmode sample-hold
vector 92 scenario.client[7].tcp.conn-100 rcvWnd:vector ETV
attr interpolationmode sample-hold
vector 93 scenario.client[7].tcp.conn-100 sndAck:vector ETV
attr interpolationmode sample-hold
vector 94 scenario.client[7].tcp.conn-101 tcpRcvQueueBytes:vector ETV
attr interpolationmode sample-hold
vector 95 scenario.client[7].tcp.conn-101 rcvAdv:vector ETV
attr interpolationmode sample-hold
vector 96 scenario.client[7].tcp.conn-101 rcvWnd:vector ETV
attr interpolationmode sample-hold
vector 97 scenario.client[7].tcp.conn-101 sndAck:vector ETV
attr interpolationmode sample-hold
vector 98 scenario.client[7].tcp.conn-102 tcpRcvQueueBytes:vector ETV
attr interpolationmode sample-hold
vector 99 scenario.client[7].tcp.conn-102 rcvAdv:vector ETV
attr interpolationmode sample-hold
vector 100 scenario.client[7].tcp.conn-102 rcvWnd:vector ETV
attr interpolationmode sample-hold
vector 101 scenario.client[7].tcp.conn-102 sndAck:vector ETV
attr interpolationmode sample-hold
vector 102 scenario.client[7].tcp.conn-103 tcpRcvQueueBytes:vector ETV
attr interpolationmode sample-hold
vector 103 scenario.client[7].tcp.conn-103 rcvAdv:vector ETV
attr interpolationmode sample-hold
vector 104 scenario.client[7].tcp.conn-103 rcvWnd:vector ETV
attr interpolationmode sample-hold
vector 105 scenario.client[7].tcp.conn-103 sndAck:vector ETV
attr interpolationmode sample-hold
vector 106 scenario.client[7].tcp.conn-104 tcpRcvQueueBytes:vector ETV
attr interpolationmode sample-hold
vector 107 scenario.client[7].tcp.conn-104 rcvAdv:vector ETV
attr interpolationmode sample-hold
vector 108 scenario.client[7].tcp.conn-104 rcvWnd:vector ETV
attr interpolationmode sample-hold
vector 109 scenario.client[7].tcp.conn-104 sndAck:vector ETV
attr interpolationmode sample-hold
vector 110 scenario.client[7].tcp.conn-105 tcpRcvQueueBytes:vector ETV
attr interpolationmode sample-hold
vector 111 scenario.client[7].tcp.conn-105 rcvAdv:vector ETV
attr interpolationmode sample-hold
vector 112 scenario.client[7].tcp.conn-105 rcvWnd:vector ETV
attr interpolationmode sample-hold
vector 113 scenario.client[7].tcp.conn-105 sndAck:vector ETV
attr interpolationmode sample-hold
vector 114 scenario.client[7].tcp.conn-106 tcpRcvQueueBytes:vector ETV
attr interpolationmode sample-hold
vector 115 scenario.client[7].tcp.conn-106 rcvAdv:vector ETV
attr interpolationmode sample-hold
vector 116 scenario.client[7].tcp.conn-106 rcvWnd:vector ETV
attr interpolationmode sample-hold
vector 117 scenario.client[7].tcp.conn-106 sndAck:vector ETV
attr interpolationmode sample-hold
vector 118 scenario.client[7].ppp[0].ppp rcvdPkFromHl:vector(packetBytes) ETV
attr interpolationmode none
attr source packetReceivedFromUpper
attr title "packets received from higher layer, vector(packetBytes)"
vector 119 scenario.client[7].ppp[0].ppp.queue packetPushed:vector(packetBytes) ETV
attr interpolationmode none
attr title "packet pushed, vector(packetBytes)"
vector 120 scenario.client[7].ppp[0].ppp.queue queueLength:vector ETV
attr interpolationmode sample-hold
attr source "count(packetPushed) - count(packetPopped) - count(packetRemoved) - count(packetDropped)"
attr title "queue length, vector"
vector 121 scenario.client[7].ppp[0].ppp.queue packetPopped:vector(packetBytes) ETV
attr interpolationmode none
attr title "packet popped, vector(packetBytes)"
vector 122 scenario.client[7].ppp[0].ppp.queue queueingTime:vector ETV
attr interpolationmode none
attr source queueingTime(packetPopped)
attr title "queueing times, vector"
attr unit s
vector 123 scenario.client[7].ppp[0].ppp txPk:vector(packetBytes) ETV
attr interpolationmode none
attr source packetSentToLower
attr title "packets transmitted, vector(packetBytes)"
vector 124 scenario.client[7].ppp[1].ppp rcvdPkFromHl:vector(packetBytes) ETV
attr interpolationmode none
attr source packetReceivedFromUpper
attr title "packets received from higher layer, vector(packetBytes)"
vector 125 scenario.client[7].ppp[1].ppp.queue packetPushed:vector(packetBytes) ETV
attr interpolationmode none
attr title "packet pushed, vector(packetBytes)"
vector 126 scenario.client[7].ppp[1].ppp.queue queueLength:vector ETV
attr interpolationmode sample-hold
attr source "count(packetPushed) - count(packetPopped) - count(packetRemoved) - count(packetDropped)"
attr title "queue length, vector"
vector 127 scenario.client[7].ppp[1].ppp.queue packetPopped:vector(packetBytes) ETV
attr interpolationmode none
attr title "packet popped, vector(packetBytes)"
vector 128 scenario.client[7].ppp[1].ppp.queue queueingTime:vector ETV
attr interpolationmode none
attr source queueingTime(packetPopped)
attr title "queueing times, vector"
attr unit s
vector 129 scenario.client[7].ppp[1].ppp txPk:vector(packetBytes) ETV
attr interpolationmode none
attr source packetSentToLower
attr title "packets transmitted, vector(packetBytes)"
vector 130 scenario.client[7].ppp[2].ppp rcvdPkFromHl:vector(packetBytes) ETV
attr interpolationmode none
attr source packetReceivedFromUpper
attr title "packets received from higher layer, vector(packetBytes)"
vector 131 scenario.client[7].ppp[2].ppp.queue packetPushed:vector(packetBytes) ETV
attr interpolationmode none
attr title "packet pushed, vector(packetBytes)"
vector 132 scenario.client[7].ppp[2].ppp.queue queueLength:vector ETV
attr interpolationmode sample-hold
attr source "count(packetPushed) - count(packetPopped) - count(packetRemoved) - count(packetDropped)"
attr title "queue length, vector"
vector 133 scenario.client[7].ppp[2].ppp.queue packetPopped:vector(packetBytes) ETV
attr interpolationmode none
attr title "packet popped, vector(packetBytes)"
vector 134 scenario.client[7].ppp[2].ppp.queue queueingTime:vector ETV
attr interpolationmode none
attr source queueingTime(packetPopped)
attr title "queueing times, vector"
attr unit s
vector 135 scenario.client[7].ppp[2].ppp txPk:vector(packetBytes) ETV
attr interpolationmode none
attr source packetSentToLower
attr title "packets transmitted, vector(packetBytes)"
vector 136 scenario.client[7].ppp[3].ppp rcvdPkFromHl:vector(packetBytes) ETV
attr interpolationmode none
attr source packetReceivedFromUpper
attr title "packets received from higher layer, vector(packetBytes)"
vector 137 scenario.client[7].ppp[3].ppp.queue packetPushed:vector(packetBytes) ETV
attr interpolationmode none
attr title "packet pushed, vector(packetBytes)"
vector 138 scenario.client[7].ppp[3].ppp.queue queueLength:vector ETV
attr interpolationmode sample-hold
attr source "count(packetPushed) - count(packetPopped) - count(packetRemoved) - count(packetDropped)"
attr title "queue length, vector"
vector 139 scenario.client[7].ppp[3].ppp.queue packetPopped:vector(packetBytes) ETV
attr interpolationmode none
attr title "packet popped, vector(packetBytes)"
vector 140 scenario.client[7].ppp[3].ppp.queue queueingTime:vector ETV
attr interpolationmode none
attr source queueingTime(packetPopped)
attr title "queueing times, vector"
attr unit s
vector 141 scenario.client[7].ppp[3].ppp txPk:vector(packetBytes) ETV
attr interpolationmode none
attr source packetSentToLower
attr title "packets transmitted, vector(packetBytes)"
vector 142 scenario.client[7].ppp[4].ppp rcvdPkFromHl:vector(packetBytes) ETV
attr interpolationmode none
attr source packetReceivedFromUpper
attr title "packets received from higher layer, vector(packetBytes)"
vector 143 scenario.client[7].ppp[4].ppp.queue packetPushed:vector(packetBytes) ETV
attr interpolationmode none
attr title "packet pushed, vector(packetBytes)"
vector 144 scenario.client[7].ppp[4].ppp.queue queueLength:vector ETV
attr interpolationmode sample-hold
attr source "count(packetPushed) - count(packetPopped) - count(packetRemoved) - count(packetDropped)"
attr title "queue length, vector"
vector 145 scenario.client[7].ppp[4].ppp.queue packetPopped:vector(packetBytes) ETV
attr interpolationmode none
attr title "packet popped, vector(packetBytes)"
vector 146 scenario.client[7].ppp[4].ppp.queue queueingTime:vector ETV
attr interpolationmode none
attr source queueingTime(packetPopped)
attr title "queueing times, vector"
attr unit s
vector 147 scenario.client[7].ppp[4].ppp txPk:vector(packetBytes) ETV
attr interpolationmode none
attr source packetSentToLower
attr title "packets transmitted, vector(packetBytes)"
vector 148 scenario.client[7].ppp[5].ppp rcvdPkFromHl:vector(packetBytes) ETV
attr interpolationmode none
attr source packetReceivedFromUpper
attr title "packets received from higher layer, vector(packetBytes)"
vector 149 scenario.client[7].ppp[5].ppp.queue packetPushed:vector(packetBytes) ETV
attr interpolationmode none
attr title "packet pushed, vector(packetBytes)"
vector 150 scenario.client[7].ppp[5].ppp.queue queueLength:vector ETV
attr interpolationmode sample-hold
attr source "count(packetPushed) - count(packetPopped) - count(packetRemoved) - count(packetDropped)"
attr title "queue length, vector"
vector 151 scenario.client[7].ppp[5].ppp.queue packetPopped:vector(packetBytes) ETV
attr interpolationmode none
attr title "packet popped, vector(packetBytes)"
vector 152 scenario.client[7].ppp[5].ppp.queue queueingTime:vector ETV
attr interpolationmode none
attr source queueingTime(packetPopped)
attr title "queueing times, vector"
attr unit s
vector 153 scenario.client[7].ppp[5].ppp txPk:vector(packetBytes) ETV
attr interpolationmode none
attr source packetSentToLower
attr title "packets transmitted, vector(packetBytes)"
vector 154 scenario.client[7].ppp[6].ppp rcvdPkFromHl:vector(packetBytes) ETV
attr interpolationmode none
attr source packetReceivedFromUpper
attr title "packets received from higher layer, vector(packetBytes)"
vector 155 scenario.client[7].ppp[6].ppp.queue packetPushed:vector(packetBytes) ETV
attr interpolationmode none
attr title "packet pushed, vector(packetBytes)"
vector 156 scenario.client[7].ppp[6].ppp.queue queueLength:vector ETV
attr interpolationmode sample-hold
attr source "count(packetPushed) - count(packetPopped) - count(packetRemoved) - count(packetDropped)"
attr title "queue length, vector"
vector 157 scenario.client[7].ppp[6].ppp.queue packetPopped:vector(packetBytes) ETV
attr interpolationmode none
attr title "packet popped, vector(packetBytes)"
vector 158 scenario.client[7].ppp[6].ppp.queue queueingTime:vector ETV
attr interpolationmode none
attr source queueingTime(packetPopped)
attr title "queueing times, vector"
attr unit s
vector 159 scenario.client[7].ppp[6].ppp txPk:vector(packetBytes) ETV
attr interpolationmode none
attr source packetSentToLower
attr title "packets transmitted, vector(packetBytes)"
vector 160 scenario.client[0].ppp[6].ppp rxPkOk:vector(packetBytes) ETV
attr interpolationmode none
attr source rxPkOk
attr title "packets received OK, vector(packetBytes)"
vector 161 scenario.client[0].ppp[6].ppp passedUpPk:vector(packetBytes) ETV
attr interpolationmode none
attr source packetSentToUpper
attr title "packets passed to higher layer, vector(packetBytes)"
vector 162 scenario.client[1].ppp[6].ppp rxPkOk:vector(packetBytes) ETV
attr interpolationmode none
attr source rxPkOk
attr title "packets received OK, vector(packetBytes)"
vector 163 scenario.client[1].ppp[6].ppp passedUpPk:vector(packetBytes) ETV
attr interpolationmode none
attr source packetSentToUpper
attr title "packets passed to higher layer, vector(packetBytes)"
vector 164 scenario.client[2].ppp[6].ppp rxPkOk:vector(packetBytes) ETV
attr interpolationmode none
attr source rxPkOk
attr title "packets received OK, vector(packetBytes)"
vector 165 scenario.client[2].ppp[6].ppp passedUpPk:vector(packetBytes) ETV
attr interpolationmode none
attr source packetSentToUpper
attr title "packets passed to higher layer, vector(packetBytes)"
vector 166 scenario.client[3].ppp[6].ppp rxPkOk:vector(packetBytes) ETV
attr interpolationmode none
attr source rxPkOk
attr title "packets received OK, vector(packetBytes)"
vector 167 scenario.client[3].ppp[6].ppp passedUpPk:vector(packetBytes) ETV
attr interpolationmode none
attr source packetSentToUpper
attr title "packets passed to higher layer, vector(packetBytes)"
vector 168 scenario.client[4].ppp[6].ppp rxPkOk:vector(packetBytes) ETV
attr interpolationmode none
attr source rxPkOk
attr title "packets received OK, vector(packetBytes)"
vector 169 scenario.client[4].ppp[6].ppp passedUpPk:vector(packetBytes) ETV
attr interpolationmode none
attr source packetSentToUpper
attr title "packets passed to higher layer, vector(packetBytes)"
vector 170 scenario.client[5].ppp[6].ppp rxPkOk:vector(packetBytes) ETV
attr interpolationmode none
attr source rxPkOk
attr title "packets received OK, vector(packetBytes)"
vector 171 scenario.client[5].ppp[6].ppp passedUpPk:vector(packetBytes) ETV
attr interpolationmode none
attr source packetSentToUpper
attr title "packets passed to higher layer, vector(packetBytes)"
vector 172 scenario.client[6].ppp[6].ppp rxPkOk:vector(packetBytes) ETV
attr interpolationmode none
attr source rxPkOk
attr title "packets received OK, vector(packetBytes)"
vector 173 scenario.client[6].ppp[6].ppp passedUpPk:vector(packetBytes) ETV
attr interpolationmode none
attr source packetSentToUpper
attr title "packets passed to higher layer, vector(packetBytes)"
vector 174 scenario.client[0].tcp.conn-0 rcvSeq:vector ETV
attr interpolationmode sample-hold
vector 175 scenario.client[0].tcp.conn-0 rcvAck:vector ETV
attr interpolationmode sample-hold
vector 176 scenario.client[0].tcp.conn-107 rcvAdv:vector ETV
attr interpolationmode sample-hold
vector 177 scenario.client[0].tcp.conn-107 sndWnd:vector ETV
attr interpolationmode sample-hold
vector 178 scenario.client[0].tcp.conn-107 tcpRcvQueueBytes:vector ETV
attr interpolationmode sample-hold
vector 179 scenario.client[0].tcp.conn-107 rcvWnd:vector ETV
attr interpolationmode sample-hold
vector 180 scenario.client[0].tcp.conn-107 sndAck:vector ETV
attr interpolationmode sample-hold
vector 181 scenario.client[1].tcp.conn-1 rcvSeq:vector ETV
attr interpolationmode sample-hold
vector 182 scenario.client[1].tcp.conn-1 rcvAck:vector ETV
attr interpolationmode sample-hold
vector 183 scenario.client[1].tcp.conn-108 rcvAdv:vector ETV
attr interpolationmode sample-hold
vector 184 scenario.client[1].tcp.conn-108 sndWnd:vector ETV
attr interpolationmode sample-hold
vector 185 scenario.client[1].tcp.conn-108 tcpRcvQueueBytes:vector ETV
attr interpolationmode sample-hold
vector 186 scenario.client[1].tcp.conn-108 rcvWnd:vector ETV
attr interpolationmode sample-hold
vector 187 scenario.client[1].tcp.conn-108 sndAck:vector ETV
attr interpolationmode sample-hold
vector 188 scenario.client[2].tcp.conn-2 rcvSeq:vector ETV
attr interpolationmode sample-hold
vector 189 scenario.client[2].tcp.conn-2 rcvAck:vector ETV
attr interpolationmode sample-hold
vector 190 scenario.client[2].tcp.conn-109 rcvAdv:vector ETV
attr interpolationmode sample-hold
vector 191 scenario.client[2].tcp.conn-109 sndWnd:vector ETV
attr interpolationmode sample-hold
vector 192 scenario.client[2].tcp.conn-109 tcpRcvQueueBytes:vector ETV
attr interpolationmode sample-hold
vector 193 scenario.client[2].tcp.conn-109 rcvWnd:vector ETV
attr interpolationmode sample-hold
vector 194 scenario.client[2].tcp.conn-109 sndAck:vector ETV
attr interpolationmode sample-hold
vector 195 scenario.client[3].tcp.conn-3 rcvSeq:vector ETV
attr interpolationmode sample-hold
vector 196 scenario.client[3].tcp.conn-3 rcvAck:vector ETV
attr interpolationmode sample-hold
vector 197 scenario.client[3].tcp.conn-110 rcvAdv:vector ETV
attr interpolationmode sample-hold
vector 198 scenario.client[3].tcp.conn-110 sndWnd:vector ETV
attr interpolationmode sample-hold
vector 199 scenario.client[3].tcp.conn-110 tcpRcvQueueBytes:vector ETV
attr interpolationmode sample-hold
vector 200 scenario.client[3].tcp.conn-110 rcvWnd:vector ETV
attr interpolationmode sample-hold
vector 201 scenario.client[3].tcp.conn-110 sndAck:vector ETV
attr interpolationmode sample-hold
vector 202 scenario.client[4].tcp.conn-4 rcvSeq:vector ETV
attr interpolationmode sample-hold
vector 203 scenario.client[4].tcp.conn-4 rcvAck:vector ETV
attr interpolationmode sample-hold
vector 204 scenario.client[4].tcp.conn-111 rcvAdv:vector ETV
attr interpolationmode sample-hold
vector 205 scenario.client[4].tcp.conn-111 sndWnd:vector ETV
attr interpolationmode sample-hold
vector 206 scenario.client[4].tcp.conn-111 tcpRcvQueueBytes:vector ETV
attr interpolationmode sample-hold
vector 207 scenario.client[4].tcp.conn-111 rcvWnd:vector ETV
attr interpolationmode sample-hold
vector 208 scenario.client[4].tcp.conn-111 sndAck:vector ETV
attr interpolationmode sample-hold
vector 209 scenario.client[5].tcp.conn-5 rcvSeq:vector ETV
attr interpolationmode sample-hold
vector 210 scenario.client[5].tcp.conn-5 rcvAck:vector ETV
attr interpolationmode sample-hold
vector 211 scenario.client[5].tcp.conn-112 rcvAdv:vector ETV
attr interpolationmode sample-hold
vector 212 scenario.client[5].tcp.conn-112 sndWnd:vector ETV
attr interpolationmode sample-hold
vector 213 scenario.client[5].tcp.conn-112 tcpRcvQueueBytes:vector ETV
attr interpolationmode sample-hold
vector 214 scenario.client[5].tcp.conn-112 rcvWnd:vector ETV
attr interpolationmode sample-hold
vector 215 scenario.client[5].tcp.conn-112 sndAck:vector ETV
attr interpolationmode sample-hold
vector 216 scenario.client[6].tcp.conn-6 rcvSeq:vector ETV
attr interpolationmode sample-hold
vector 217 scenario.client[6].tcp.conn-6 rcvAck:vector ETV
attr interpolationmode sample-hold
vector 218 scenario.client[6].tcp.conn-113 rcvAdv:vector ETV
attr interpolationmode sample-hold
vector 219 scenario.client[6].tcp.conn-113 sndWnd:vector ETV
attr interpolationmode sample-hold
vector 220 scenario.client[6].tcp.conn-113 tcpRcvQueueBytes:vector ETV
attr interpolationmode sample-hold
vector 221 scenario.client[6].tcp.conn-113 rcvWnd:vector ETV
attr interpolationmode sample-hold
vector 222 scenario.client[6].tcp.conn-113 sndAck:vector ETV
attr interpolationmode sample-hold
vector 223 scenario.client[0].ppp[6].ppp rcvdPkFromHl:vector(packetBytes) ETV
attr interpolationmode none
attr source packetReceivedFromUpper
attr title "packets received from higher layer, vector(packetBytes)"
vector 224 scenario.client[0].ppp[6].ppp.queue packetPushed:vector(packetBytes) ETV
attr interpolationmode none
attr title "packet pushed, vector(packetBytes)"
vector 225 scenario.client[0].ppp[6].ppp.queue queueLength:vector ETV
attr interpolationmode sample-hold
attr source "count(packetPushed) - count(packetPopped) - count(packetRemoved) - count(packetDropped)"
attr title "queue length, vector"
vector 226 scenario.client[0].ppp[6].ppp.queue packetPopped:vector(packetBytes) ETV
attr interpolationmode none
attr title "packet popped, vector(packetBytes)"
vector 227 scenario.client[0].ppp[6].ppp.queue queueingTime:vector ETV
attr interpolationmode none
attr source queueingTime(packetPopped)
attr title "queueing times, vector"
attr unit s
vector 228 scenario.client[0].ppp[6].ppp txPk:vector(packetBytes) ETV
attr interpolationmode none
attr source packetSentToLower
attr title "packets transmitted, vector(packetBytes)"
vector 229 scenario.client[1].ppp[6].ppp rcvdPkFromHl:vector(packetBytes) ETV
attr interpolationmode none
attr source packetReceivedFromUpper
attr title "packets received from higher layer, vector(packetBytes)"
vector 230 scenario.client[1].ppp[6].ppp.queue packetPushed:vector(packetBytes) ETV
attr interpolationmode none
attr title "packet pushed, vector(packetBytes)"
vector 231 scenario.client[1].ppp[6].ppp.queue queueLength:vector ETV
attr interpolationmode sample-hold
attr source "count(packetPushed) - count(packetPopped) - count(packetRemoved) - count(packetDropped)"
attr title "queue length, vector"
vector 232 scenario.client[1].ppp[6].ppp.queue packetPopped:vector(packetBytes) ETV
attr interpolationmode none
attr title "packet popped, vector(packetBytes)"
vector 233 scenario.client[1].ppp[6].ppp.queue queueingTime:vector ETV
attr interpolationmode none
attr source queueingTime(packetPopped)
attr title "queueing times, vector"
attr unit s
vector 234 scenario.client[1].ppp[6].ppp txPk:vector(packetBytes) ETV
attr interpolationmode none
attr source packetSentToLower
attr title "packets transmitted, vector(packetBytes)"
vector 235 scenario.client[2].ppp[6].ppp rcvdPkFromHl:vector(packetBytes) ETV
attr interpolationmode none
attr source packetReceivedFromUpper
attr title "packets received from higher layer, vector(packetBytes)"
vector 236 scenario.client[2].ppp[6].ppp.queue packetPushed:vector(packetBytes) ETV
attr interpolationmode none
attr title "packet pushed, vector(packetBytes)"
vector 237 scenario.client[2].ppp[6].ppp.queue queueLength:vector ETV
attr interpolationmode sample-hold
attr source "count(packetPushed) - count(packetPopped) - count(packetRemoved) - count(packetDropped)"
attr title "queue length, vector"
vector 238 scenario.client[2].ppp[6].ppp.queue packetPopped:vector(packetBytes) ETV
attr interpolationmode none
attr title "packet popped, vector(packetBytes)"
vector 239 scenario.client[2].ppp[6].ppp.queue queueingTime:vector ETV
attr interpolationmode none
attr source queueingTime(packetPopped)
attr title "queueing times, vector"
attr unit s
vector 240 scenario.client[2].ppp[6].ppp txPk:vector(packetBytes) ETV
attr interpolationmode none
attr source packetSentToLower
attr title "packets transmitted, vector(packetBytes)"
vector 241 scenario.client[3].ppp[6].ppp rcvdPkFromHl:vector(packetBytes) ETV
attr interpolationmode none
attr source packetReceivedFromUpper
attr title "packets received from higher layer, vector(packetBytes)"
vector 242 scenario.client[3].ppp[6].ppp.queue packetPushed:vector(packetBytes) ETV
attr interpolationmode none
attr title "packet pushed, vector(packetBytes)"
vector 243 scenario.client[3].ppp[6].ppp.queue queueLength:vector ETV
attr interpolationmode sample-hold
attr source "count(packetPushed) - count(packetPopped) - count(packetRemoved) - count(packetDropped)"
attr title "queue length, vector"
vector 244 scenario.client[3].ppp[6].ppp.queue packetPopped:vector(packetBytes) ETV
attr interpolationmode none
attr title "packet popped, vector(packetBytes)"
vector 245 scenario.client[3].ppp[6].ppp.queue queueingTime:vector ETV
attr interpolationmode none
attr source queueingTime(packetPopped)
attr title "queueing times, vector"
attr unit s
vector 246 scenario.client[3].ppp[6].ppp txPk:vector(packetBytes) ETV
attr interpolationmode none
attr source packetSentToLower
attr title "packets transmitted, vector(packetBytes)"
vector 247 scenario.client[4].ppp[6].ppp rcvdPkFromHl:vector(packetBytes) ETV
attr interpolationmode none
attr source packetReceivedFromUpper
attr title "packets received from higher layer, vector(packetBytes)"
vector 248 scenario.client[4].ppp[6].ppp.queue packetPushed:vector(packetBytes) ETV
attr interpolationmode none
attr title "packet pushed, vector(packetBytes)"
vector 249 scenario.client[4].ppp[6].ppp.queue queueLength:vector ETV
attr interpolationmode sample-hold
attr source "count(packetPushed) - count(packetPopped) - count(packetRemoved) - count(packetDropped)"
attr title "queue length, vector"
vector 250 scenario.client[4].ppp[6].ppp.queue packetPopped:vector(packetBytes) ETV
attr interpolationmode none
attr title "packet popped, vector(packetBytes)"
vector 251 scenario.client[4].ppp[6].ppp.queue queueingTime:vector ETV
attr interpolationmode none
attr source queueingTime(packetPopped)
attr title "queueing times, vector"
attr unit s
vector 252 scenario.client[4].ppp[6].ppp txPk:vector(packetBytes) ETV
attr interpolationmode none
attr source packetSentToLower
attr title "packets transmitted, vector(packetBytes)"
vector 253 scenario.client[5].ppp[6].ppp rcvdPkFromHl:vector(packetBytes) ETV
attr interpolationmode none
attr source packetReceivedFromUpper
attr title "packets received from higher layer, vector(packetBytes)"
vector 254 scenario.client[5].ppp[6].ppp.queue packetPushed:vector(packetBytes) ETV
attr interpolationmode none
attr title "packet pushed, vector(packetBytes)"
vector 255 scenario.client[5].ppp[6].ppp.queue queueLength:vector ETV
attr interpolationmode sample-hold
attr source "count(packetPushed) - count(packetPopped) - count(packetRemoved) - count(packetDropped)"
attr title "queue length, vector"
vector 256 scenario.client[5].ppp[6].ppp.queue packetPopped:vector(packetBytes) ETV
attr interpolationmode none
attr title "packet popped, vector(packetBytes)"
vector 257 scenario.client[5].ppp[6].ppp.queue queueingTime:vector ETV
attr interpolationmode none
attr source queueingTime(packetPopped)
attr title "queueing times, vector"
attr unit s
vector 258 scenario.client[5].ppp[6].ppp txPk:vector(packetBytes) ETV
attr interpolationmode none
attr source packetSentToLower
attr title "packets transmitted, vector(packetBytes)"
vector 259 scenario.client[6].ppp[6].ppp rcvdPkFromHl:vector(packetBytes) ETV
attr interpolationmode none
attr source packetReceivedFromUpper
attr title "packets received from higher layer, vector(packetBytes)"
vector 260 scenario.client[6].ppp[6].ppp.queue packetPushed:vector(packetBytes) ETV
attr interpolationmode none
attr title "packet pushed, vector(packetBytes)"
vector 261 scenario.client[6].ppp[6].ppp.queue queueLength:vector ETV
attr interpolationmode sample-hold
attr source "count(packetPushed) - count(packetPopped) - count(packetRemoved) - count(packetDropped)"
attr title "queue length, vector"
vector 262 scenario.client[6].ppp[6].ppp.queue packetPopped:vector(packetBytes) ETV
attr interpolationmode none
attr title "packet popped, vector(packetBytes)"
vector 263 scenario.client[6].ppp[6].ppp.queue queueingTime:vector ETV
attr interpolationmode none
attr source queueingTime(packetPopped)
attr title "queueing times, vector"
attr unit s
vector 264 scenario.client[6].ppp[6].ppp txPk:vector(packetBytes) ETV
attr interpolationmode none
attr source packetSentToLower
attr title "packets transmitted, vector(packetBytes)"
vector 265 scenario.client[7].ppp[0].ppp rxPkOk:vector(packetBytes) ETV
attr interpolationmode none
attr source rxPkOk
attr title "packets received OK, vector(packetBytes)"
vector 266 scenario.client[7].ppp[0].ppp passedUpPk:vector(packetBytes) ETV
attr interpolationmode none
attr source packetSentToUpper
attr title "packets passed to higher layer, vector(packetBytes)"
vector 267 scenario.client[7].ppp[1].ppp rxPkOk:vector(packetBytes) ETV
attr interpolationmode none
attr source rxPkOk
attr title "packets received OK, vector(packetBytes)"
vector 268 scenario.client[7].ppp[1].ppp passedUpPk:vector(packetBytes) ETV
attr interpolationmode none
attr source packetSentToUpper
attr title "packets passed to higher layer, vector(packetBytes)"
vector 269 scenario.client[7].ppp[2].ppp rxPkOk:vector(packetBytes) ETV
attr interpolationmode none
attr source rxPkOk
attr title "packets received OK, vector(packetBytes)"
vector 270 scenario.client[7].ppp[2].ppp passedUpPk:vector(packetBytes) ETV
attr interpolationmode none
attr source packetSentToUpper
attr title "packets passed to higher layer, vector(packetBytes)"
vector 271 scenario.client[7].ppp[3].ppp rxPkOk:vector(packetBytes) ETV
attr interpolationmode none
attr source rxPkOk
attr title "packets received OK, vector(packetBytes)"
vector 272 scenario.client[7].ppp[3].ppp passedUpPk:vector(packetBytes) ETV
attr interpolationmode none
attr source packetSentToUpper
attr title "packets passed to higher layer, vector(packetBytes)"
vector 273 scenario.client[7].ppp[4].ppp rxPkOk:vector(packetBytes) ETV
attr interpolationmode none
attr source rxPkOk
attr title "packets received OK, vector(packetBytes)"
vector 274 scenario.client[7].ppp[4].ppp passedUpPk:vector(packetBytes) ETV
attr interpolationmode none
attr source packetSentToUpper
attr title "packets passed to higher layer, vector(packetBytes)"
vector 275 scenario.client[7].ppp[5].ppp rxPkOk:vector(packetBytes) ETV
attr interpolationmode none
attr source rxPkOk
attr title "packets received OK, vector(packetBytes)"
vector 276 scenario.client[7].ppp[5].ppp passedUpPk:vector(packetBytes) ETV
attr interpolationmode none
attr source packetSentToUpper
attr title "packets passed to higher layer, vector(packetBytes)"
vector 277 scenario.client[7].ppp[6].ppp rxPkOk:vector(packetBytes) ETV
attr interpolationmode none
attr source rxPkOk
attr title "packets received OK, vector(packetBytes)"
vector 278 scenario.client[7].ppp[6].ppp passedUpPk:vector(packetBytes) ETV
attr interpolationmode none
attr source packetSentToUpper
attr title "packets passed to higher layer, vector(packetBytes)"
vector 279 scenario.client[7].tcp.conn-100 rcvSeq:vector ETV
attr interpolationmode sample-hold
vector 280 scenario.client[7].tcp.conn-100 rcvAck:vector ETV
attr interpolationmode sample-hold
vector 281 scenario.client[7].tcp.conn-100 sndWnd:vector ETV
attr interpolationmode sample-hold
vector 282 scenario.client[7].tcp.conn-100 unacked:vector ETV
attr interpolationmode sample-hold
vector 283 scenario.client[7].tcp.conn-101 rcvSeq:vector ETV
attr interpolationmode sample-hold
vector 284 scenario.client[7].tcp.conn-101 rcvAck:vector ETV
attr interpolationmode sample-hold
vector 285 scenario.client[7].tcp.conn-101 sndWnd:vector ETV
attr interpolationmode sample-hold
vector 286 scenario.client[7].tcp.conn-101 unacked:vector ETV
attr interpolationmode sample-hold
vector 287 scenario.client[7].tcp.conn-102 rcvSeq:vector ETV
attr interpolationmode sample-hold
vector 288 scenario.client[7].tcp.conn-102 rcvAck:vector ETV
attr interpolationmode sample-hold
vector 289 scenario.client[7].tcp.conn-102 sndWnd:vector ETV
attr interpolationmode sample-hold
vector 290 scenario.client[7].tcp.conn-102 unacked:vector ETV
attr interpolationmode sample-hold
vector 291 scenario.client[7].tcp.conn-103 rcvSeq:vector ETV
attr interpolationmode sample-hold
vector 292 scenario.client[7].tcp.conn-103 rcvAck:vector ETV
attr interpolationmode sample-hold
vector 293 scenario.client[7].tcp.conn-103 sndWnd:vector ETV
attr interpolationmode sample-hold
vector 294 scenario.client[7].tcp.conn-103 unacked:vector ETV
attr interpolationmode sample-hold
vector 295 scenario.client[7].tcp.conn-104 rcvSeq:vector ETV
attr interpolationmode sample-hold
vector 296 scenario.client[7].tcp.conn-104 rcvAck:vector ETV
attr interpolationmode sample-hold
vector 297 scenario.client[7].tcp.conn-104 sndWnd:vector ETV
attr interpolationmode sample-hold
vector 298 scenario.client[7].tcp.conn-104 unacked:vector ETV
attr interpolationmode sample-hold
vector 299 scenario.client[7].tcp.conn-105 rcvSeq:vector ETV
attr interpolationmode sample-hold
vector 300 scenario.client[7].tcp.conn-105 rcvAck:vector ETV
attr interpolationmode sample-hold
vector 301 scenario.client[7].tcp.conn-105 sndWnd:vector ETV
attr interpolationmode sample-hold
vector 302 scenario.client[7].tcp.conn-105 unacked:vector ETV
attr interpolationmode sample-hold
vector 303 scenario.client[7].tcp.conn-106 rcvSeq:vector ETV
attr interpolationmode sample-hold
vector 304 scenario.client[7].tcp.conn-106 rcvAck:vector ETV
attr interpolationmode sample-hold
vector 305 scenario.client[7].tcp.conn-106 sndWnd:vector ETV
attr interpolationmode sample-hold
vector 306 scenario.client[7].tcp.conn-106 unacked:vector ETV
attr interpolationmode sample-hold
vector 307 scenario.client[0].tcp.conn-107 rcvSeq:vector ETV
attr interpolationmode sample-hold
vector 308 scenario.client[0].tcp.conn-107 rcvAck:vector ETV
attr interpolationmode sample-hold
vector 309 scenario.client[0].tcp.conn-107 unacked:vector ETV
attr interpolationmode sample-hold
vector 310 scenario.client[0].tcp.conn-107 cwnd:vector ETV
attr interpolationmode sample-hold
vector 311 scenario.client[0].tcp.conn-107 ssthresh:vector ETV
attr interpolationmode sample-hold
vector 312 scenario.client[0].tcp.conn-107 dupAcks:vector ETV
attr interpolationmode sample-hold
vector 313 scenario.client[1].tcp.conn-108 rcvSeq:vector ETV
attr interpolationmode sample-hold
vector 314 scenario.client[1].tcp.conn-108 rcvAck:vector ETV
attr interpolationmode sample-hold
vector 315 scenario.client[1].tcp.conn-108 unacked:vector ETV
attr interpolationmode sample-hold
vector 316 scenario.client[1].tcp.conn-108 cwnd:vector ETV
attr interpolationmode sample-hold
vector 317 scenario.client[1].tcp.conn-108 ssthresh:vector ETV
attr interpolationmode sample-hold
vector 318 scenario.client[1].tcp.conn-108 dupAcks:vector ETV
attr interpolationmode sample-hold
vector 319 scenario.client[2].tcp.conn-109 rcvSeq:vector ETV
attr interpolationmode sample-hold
vector 320 scenario.client[2].tcp.conn-109 rcvAck:vector ETV
attr interpolationmode sample-hold
vector 321 scenario.client[2].tcp.conn-109 unacked:vector ETV
attr interpolationmode sample-hold
vector 322 scenario.client[2].tcp.conn-109 cwnd:vector ETV
attr interpolationmode sample-hold
vector 323 scenario.client[2].tcp.conn-109 ssthresh:vector ETV
attr interpolationmode sample-hold
vector 324 scenario.client[2].tcp.conn-109 dupAcks:vector ETV
attr interpolationmode sample-hold
vector 325 scenario.client[3].tcp.conn-110 rcvSeq:vector ETV
attr interpolationmode sample-hold
vector 326 scenario.client[3].tcp.conn-110 rcvAck:vector ETV
attr interpolationmode sample-hold
vector 327 scenario.client[3].tcp.conn-110 unacked:vector ETV
attr interpolationmode sample-hold
vector 328 scenario.client[3].tcp.conn-110 cwnd:vector ETV
attr interpolationmode sample-hold
vector 329 scenario.client[3].tcp.conn-110 ssthresh:vector ETV
attr interpolationmode sample-hold
vector 330 scenario.client[3].tcp.conn-110 dupAcks:vector ETV
attr interpolationmode sample-hold
vector 331 scenario.client[4].tcp.conn-111 rcvSeq:vector ETV
attr interpolationmode sample-hold
vector 332 scenario.client[4].tcp.conn-111 rcvAck:vector ETV
attr interpolationmode sample-hold
vector 333 scenario.client[4].tcp.conn-111 unacked:vector ETV
attr interpolationmode sample-hold
vector 334 scenario.client[4].tcp.conn-111 cwnd:vector ETV
attr interpolationmode sample-hold
vector 335 scenario.client[4].tcp.conn-111 ssthresh:vector ETV
attr interpolationmode sample-hold
vector 336 scenario.client[4].tcp.conn-111 dupAcks:vector ETV
attr interpolationmode sample-hold
vector 337 scenario.client[5].tcp.conn-112 rcvSeq:vector ETV
attr interpolationmode sample-hold
vector 338 scenario.client[5].tcp.conn-112 rcvAck:vector ETV
attr interpolationmode sample-hold
vector 339 scenario.client[5].tcp.conn-112 unacked:vector ETV
attr interpolationmode sample-hold
vector 340 scenario.client[5].tcp.conn-112 cwnd:vector ETV
attr interpolationmode sample-hold
vector 341 scenario.client[5].tcp.conn-112 ssthresh:vector ETV
attr interpolationmode sample-hold
vector 342 scenario.client[5].tcp.conn-112 dupAcks:vector ETV
attr interpolationmode sample-hold
vector 343 scenario.client[6].tcp.conn-113 rcvSeq:vector ETV
attr interpolationmode sample-hold
vector 344 scenario.client[6].tcp.conn-113 rcvAck:vector ETV
attr interpolationmode sample-hold
vector 345 scenario.client[6].tcp.conn-113 unacked:vector ETV
attr interpolationmode sample-hold
vector 346 scenario.client[6].tcp.conn-113 cwnd:vector ETV
attr interpolationmode sample-hold
vector 347 scenario.client[6].tcp.conn-113 ssthresh:vector ETV
attr interpolationmode sample-hold
vector 348 scenario.client[6].tcp.conn-113 dupAcks:vector ETV
attr interpolationmode sample-hold
vector 349 scenario.client[0].tcp.conn-114 tcpRcvQueueBytes:vector ETV
attr interpolationmode sample-hold
vector 350 scenario.client[0].tcp.conn-114 rcvAdv:vector ETV
attr interpolationmode sample-hold
vector 351 scenario.client[0].tcp.conn-114 rcvWnd:vector ETV
attr interpolationmode sample-hold
vector 352 scenario.client[0].tcp.conn-114 sndAck:vector ETV
attr interpolationmode sample-hold
vector 353 scenario.client[1].tcp.conn-115 tcpRcvQueueBytes:vector ETV
attr interpolationmode sample-hold
vector 354 scenario.client[1].tcp.conn-115 rcvAdv:vector ETV
attr interpolationmode sample-hold
vector 355 scenario.client[1].tcp.conn-115 rcvWnd:vector ETV
attr interpolationmode sample-hold
vector 356 scenario.client[1].tcp.conn-115 sndAck:vector ETV
attr interpolationmode sample-hold
vector 357 scenario.client[2].tcp.conn-116 tcpRcvQueueBytes:vector ETV
attr interpolationmode sample-hold
vector 358 scenario.client[2].tcp.conn-116 rcvAdv:vector ETV
attr interpolationmode sample-hold
vector 359 scenario.client[2].tcp.conn-116 rcvWnd:vector ETV
attr interpolationmode sample-hold
vector 360 scenario.client[2].tcp.conn-116 sndAck:vector ETV
attr interpolationmode sample-hold
vector 361 scenario.client[3].tcp.conn-117 tcpRcvQueueBytes:vector ETV
attr interpolationmode sample-hold
vector 362 scenario.client[3].tcp.conn-117 rcvAdv:vector ETV
attr interpolationmode sample-hold
vector 363 scenario.client[3].tcp.conn-117 rcvWnd:vector ETV
attr interpolationmode sample-hold
vector 364 scenario.client[3].tcp.conn-117 sndAck:vector ETV
attr interpolationmode sample-hold
vector 365 scenario.client[4].tcp.conn-118 tcpRcvQueueBytes:vector ETV
attr interpolationmode sample-hold
vector 366 scenario.client[4].tcp.conn-118 rcvAdv:vector ETV
attr interpolationmode sample-hold
vector 367 scenario.client[4].tcp.conn-118 rcvWnd:vector ETV
attr interpolationmode sample-hold
vector 368 scenario.client[4].tcp.conn-118 sndAck:vector ETV
attr interpolationmode sample-hold
vector 369 scenario.client[5].tcp.conn-119 tcpRcvQueueBytes:vector ETV
attr interpolationmode sample-hold
vector 370 scenario.client[5].tcp.conn-119 rcvAdv:vector ETV
attr interpolationmode sample-hold
vector 371 scenario.client[5].tcp.conn-119 rcvWnd:vector ETV
attr interpolationmode sample-hold
vector 372 scenario.client[5].tcp.conn-119 sndAck:vector ETV
attr interpolationmode sample-hold
vector 373 scenario.client[6].tcp.conn-120 tcpRcvQueueBytes:vector ETV
attr interpolationmode sample-hold
vector 374 scenario.client[6].tcp.conn-120 rcvAdv:vector ETV
attr interpolationmode sample-hold
vector 375 scenario.client[6].tcp.conn-120 rcvWnd:vector ETV
attr interpolationmode sample-hold
vector 376 scenario.client[6].tcp.conn-120 sndAck:vector ETV
attr interpolationmode sample-hold
vector 377 scenario.client[7].tcp.conn-100 rtt:vector ETV
attr interpolationmode sample-hold
vector 378 scenario.client[7].tcp.conn-100 srtt:vector ETV
attr interpolationmode sample-hold
vector 379 scenario.client[7].tcp.conn-100 rttvar:vector ETV
attr interpolationmode sample-hold
vector 380 scenario.client[7].tcp.conn-100 rto:vector ETV
attr interpolationmode sample-hold
vector 381 scenario.client[7].tcp.conn-100 cwnd:vector ETV
attr interpolationmode sample-hold
vector 382 scenario.client[7].tcp.conn-100 ssthresh:vector ETV
attr interpolationmode sample-hold
vector 383 scenario.client[7].tcp.conn-100 dupAcks:vector ETV
attr interpolationmode sample-hold
vector 384 scenario.client[7].tcp.conn-101 rtt:vector ETV
attr interpolationmode sample-hold
vector 385 scenario.client[7].tcp.conn-101 srtt:vector ETV
attr interpolationmode sample-hold
vector 386 scenario.client[7].tcp.conn-101 rttvar:vector ETV
attr interpolationmode sample-hold
vector 387 scenario.client[7].tcp.conn-101 rto:vector ETV
attr interpolationmode sample-hold
vector 388 scenario.client[7].tcp.conn-101 cwnd:vector ETV
attr interpolationmode sample-hold
vector 389 scenario.client[7].tcp.conn-101 ssthresh:vector ETV
attr interpolationmode sample-hold
vector 390 scenario.client[7].tcp.conn-101 dupAcks:vector ETV
attr interpolationmode sample-hold
vector 391 scenario.client[7].tcp.conn-102 rtt:vector ETV
attr interpolationmode sample-hold
vector 392 scenario.client[7].tcp.conn-102 srtt:vector ETV
attr interpolationmode sample-hold
vector 393 scenario.client[7].tcp.conn-102 rttvar:vector ETV
attr interpolationmode sample-hold
vector 394 scenario.client[7].tcp.conn-102 rto:vector ETV
attr interpolationmode sample-hold
vector 395 scenario.client[7].tcp.conn-102 cwnd:vector ETV
attr interpolationmode sample-hold
vector 396 scenario.client[7].tcp.conn-102 ssthresh:vector ETV
attr interpolationmode sample-hold
vector 397 scenario.client[7].tcp.conn-102 dupAcks:vector ETV
attr interpolationmode sample-hold
vector 398 scenario.client[7].tcp.conn-103 rtt:vector ETV
attr interpolationmode sample-hold
vector 399 scenario.client[7].tcp.conn-103 srtt:vector ETV
attr interpolationmode sample-hold
vector 400 scenario.client[7].tcp.conn-103 rttvar:vector ETV
attr interpolationmode sample-hold
vector 401 scenario.client[7].tcp.conn-103 rto:vector ETV
attr interpolationmode sample-hold
vector 402 scenario.client[7].tcp.conn-103 cwnd:vector ETV
attr interpolationmode sample-hold
vector 403 scenario.client[7].tcp.conn-103 ssthresh:vector ETV
attr interpolationmode sample-hold
vector 404 scenario.client[7].tcp.conn-103 dupAcks:vector ETV
attr interpolationmode sample-hold
vector 405 scenario.client[7].tcp.conn-104 rtt:vector ETV
attr interpolationmode sample-hold
vector 406 scenario.client[7].tcp.conn-104 srtt:vector ETV
attr interpolationmode sample-hold
vector 407 scenario.client[7].tcp.conn-104 rttvar:vector ETV
attr interpolationmode sample-hold
vector 408 scenario.client[7].tcp.conn-104 rto:vector ETV
attr interpolationmode sample-hold
vector 409 scenario.client[7].tcp.conn-104 cwnd:vector ETV
attr interpolationmode sample-hold
vector 410 scenario.client[7].tcp.conn-104 ssthresh:vector ETV
attr interpolationmode sample-hold
vector 411 scenario.client[7].tcp.conn-104 dupAcks:vector ETV
attr interpolationmode sample-hold
vector 412 scenario.client[7].tcp.conn-105 rtt:vector ETV
attr interpolationmode sample-hold
vector 413 scenario.client[7].tcp.conn-105 srtt:vector ETV
attr interpolationmode sample-hold
vector 414 scenario.client[7].tcp.conn-105 rttvar:vector ETV
attr interpolationmode sample-hold
vector 415 scenario.client[7].tcp.conn-105 rto:vector ETV
attr interpolationmode sample-hold
vector 416 scenario.client[7].tcp.conn-105 cwnd:vector ETV
attr interpolationmode sample-hold
vector 417 scenario.client[7].tcp.conn-105 ssthresh:vector ETV
attr interpolationmode sample-hold
vector 418 scenario.client[7].tcp.conn-105 dupAcks:vector ETV
attr interpolationmode sample-hold
vector 419 scenario.client[7].tcp.conn-106 rtt:vector ETV
attr interpolationmode sample-hold
vector 420 scenario.client[7].tcp.conn-106 srtt:vector ETV
attr interpolationmode sample-hold
vector 421 scenario.client[7].tcp.conn-106 rttvar:vector ETV
attr interpolationmode sample-hold
vector 422 scenario.client[7].tcp.conn-106 rto:vector ETV
attr interpolationmode sample-hold
vector 423 scenario.client[7].tcp.conn-106 cwnd:vector ETV
attr interpolationmode sample-hold
vector 424 scenario.client[7].tcp.conn-106 ssthresh:vector ETV
attr interpolationmode sample-hold
vector 425 scenario.client[7].tcp.conn-106 dupAcks:vector ETV
attr interpolationmode sample-hold
vector 426 scenario.client[7].tcp.conn-7 rcvSeq:vector ETV
attr interpolationmode sample-hold
vector 427 scenario.client[7].tcp.conn-7 rcvAck:vector ETV
attr interpolationmode sample-hold
vector 428 scenario.client[7].tcp.conn-121 rcvAdv:vector ETV
attr interpolationmode sample-hold
vector 429 scenario.client[7].tcp.conn-121 sndWnd:vector ETV
attr interpolationmode sample-hold
vector 430 scenario.client[7].tcp.conn-121 tcpRcvQueueBytes:vector ETV
attr interpolationmode sample-hold
vector 431 scenario.client[7].tcp.conn-121 rcvWnd:vector ETV
attr interpolationmode sample-hold
vector 432 scenario.client[7].tcp.conn-121 sndAck:vector ETV
attr interpolationmode sample-hold
vector 433 scenario.client[7].tcp.conn-122 rcvAdv:vector ETV
attr interpolationmode sample-hold
vector 434 scenario.client[7].tcp.conn-122 sndWnd:vector ETV
attr interpolationmode sample-hold
vector 435 scenario.client[7].tcp.conn-122 tcpRcvQueueBytes:vector ETV
attr interpolationmode sample-hold
vector 436 scenario.client[7].tcp.conn-122 rcvWnd:vector ETV
attr interpolationmode sample-hold
vector 437 scenario.client[7].tcp.conn-122 sndAck:vector ETV
attr interpolationmode sample-hold
vector 438 scenario.client[7].tcp.conn-123 rcvAdv:vector ETV
attr interpolationmode sample-hold
vector 439 scenario.client[7].tcp.conn-123 sndWnd:vector ETV
attr interpolationmode sample-hold
vector 440 scenario.client[7].tcp.conn-123 tcpRcvQueueBytes:vector ETV
attr interpolationmode sample-hold
vector 441 scenario.client[7].tcp.conn-123 rcvWnd:vector ETV
attr interpolationmode sample-hold
vector 442 scenario.client[7].tcp.conn-123 sndAck:vector ETV
attr interpolationmode sample-hold
vector 443 scenario.client[7].tcp.conn-124 rcvAdv:vector ETV
attr interpolationmode sample-hold
vector 444 scenario.client[7].tcp.conn-124 sndWnd:vector ETV
attr interpolationmode sample-hold
vector 445 scenario.client[7].tcp.conn-124 tcpRcvQueueBytes:vector ETV
attr interpolationmode sample-hold
vector 446 scenario.client[7].tcp.conn-124 rcvWnd:vector ETV
attr interpolationmode sample-hold
vector 447 scenario.client[7].tcp.conn-124 sndAck:vector ETV
attr interpolationmode sample-hold
vector 448 scenario.client[7].tcp.conn-125 rcvAdv:vector ETV
attr interpolationmode sample-hold
vector 449 scenario.client[7].tcp.conn-125 sndWnd:vector ETV
attr interpolationmode sample-hold
vector 450 scenario.client[7].tcp.conn-125 tcpRcvQueueBytes:vector ETV
attr interpolationmode sample-hold
vector 451 scenario.client[7].tcp.conn-125 rcvWnd:vector ETV
attr interpolationmode sample-hold
vector 452 scenario.client[7].tcp.conn-125 sndAck:vector ETV
attr interpolationmode sample-hold
vector 453 scenario.client[7].tcp.conn-126 rcvAdv:vector ETV
attr interpolationmode sample-hold
vector 454 scenario.client[7].tcp.conn-126 sndWnd:vector ETV
attr interpolationmode sample-hold
vector 455 scenario.client[7].tcp.conn-126 tcpRcvQueueBytes:vector ETV
attr interpolationmode sample-hold
vector 456 scenario.client[7].tcp.conn-126 rcvWnd:vector ETV
attr interpolationmode sample-hold
vector 457 scenario.client[7].tcp.conn-126 sndAck:vector ETV
attr interpolationmode sample-hold
vector 458 scenario.client[7].tcp.conn-127 rcvAdv:vector ETV
attr interpolationmode sample-hold
vector 459 scenario.client[7].tcp.conn-127 sndWnd:vector ETV
attr interpolationmode sample-hold
vector 460 scenario.client[7].tcp.conn-127 tcpRcvQueueBytes:vector ETV
attr interpolationmode sample-hold
vector 461 scenario.client[7].tcp.conn-127 rcvWnd:vector ETV
attr interpolationmode sample-hold
vector 462 scenario.client[7].tcp.conn-127 sndAck:vector ETV
attr interpolationmode sample-hold
vector 463 scenario.client[0].tcp.conn-114 rcvSeq:vector ETV
attr interpolationmode sample-hold
vector 464 scenario.client[0].tcp.conn-114 rcvAck:vector ETV
attr interpolationmode sample-hold
vector 465 scenario.client[0].tcp.conn-114 sndWnd:vector ETV
attr interpolationmode sample-hold
vector 466 scenario.client[0].tcp.conn-114 unacked:vector ETV
attr interpolationmode sample-hold
vector 467 scenario.client[1].tcp.conn-115 rcvSeq:vector ETV
attr interpolationmode sample-hold
vector 468 scenario.client[1].tcp.conn-115 rcvAck:vector ETV
attr interpolationmode sample-hold
vector 469 scenario.client[1].tcp.conn-115 sndWnd:vector ETV
attr interpolationmode sample-hold
vector 470 scenario.client[1].tcp.conn-115 unacked:vector ETV
attr interpolationmode sample-hold
vector 471 scenario.client[2].tcp.conn-116 rcvSeq:vector ETV
attr interpolationmode sample-hold
vector 472 scenario.client[2].tcp.conn-116 rcvAck:vector ETV
attr interpolationmode sample-hold
vector 473 scenario.client[2].tcp.conn-116 sndWnd:vector ETV
attr interpolationmode sample-hold
vector 474 scenario.client[2].tcp.conn-116 unacked:vector ETV
attr interpolationmode sample-hold
vector 475 scenario.client[3].tcp.conn-117 rcvSeq:vector ETV
attr interpolationmode sample-hold
vector 476 scenario.client[3].tcp.conn-117 rcvAck:vector ETV
attr interpolationmode sample-hold
vector 477 scenario.client[3].tcp.conn-117 sndWnd:vector ETV
attr interpolationmode sample-hold
vector 478 scenario.client[3].tcp.conn-117 unacked:vector ETV
attr interpolationmode sample-hold
vector 479 scenario.client[4].tcp.conn-118 rcvSeq:vector ETV
attr interpolationmode sample-hold
vector 480 scenario.client[4].tcp.conn-118 rcvAck:vector ETV
attr interpolationmode sample-hold
vector 481 scenario.client[4].tcp.conn-118 sndWnd:vector ETV
attr interpolationmode sample-hold
vector 482 scenario.client[4].tcp.conn-118 unacked:vector ETV
attr interpolationmode sample-hold
vector 483 scenario.client[5].tcp.conn-119 rcvSeq:vector ETV
attr interpolationmode sample-hold
vector 484 scenario.client[5].tcp.conn-119 rcvAck:vector ETV
attr interpolationmode sample-hold
vector 485 scenario.client[5].tcp.conn-119 sndWnd:vector ETV
attr interpolationmode sample-hold
vector 486 scenario.client[5].tcp.conn-119 unacked:vector ETV
attr interpolationmode sample-hold
vector 487 scenario.client[6].tcp.conn-120 rcvSeq:vector ETV
attr interpolationmode sample-hold
vector 488 scenario.client[6].tcp.conn-120 rcvAck:vector ETV
attr interpolationmode sample-hold
vector 489 scenario.client[6].tcp.conn-120 sndWnd:vector ETV
attr interpolationmode sample-hold
vector 490 scenario.client[6].tcp.conn-120 unacked:vector ETV
attr interpolationmode sample-hold
vector 491 scenario.client[7].tcp.conn-121 rcvSeq:vector ETV
attr interpolationmode sample-hold
vector 492 scenario.client[7].tcp.conn-121 rcvAck:vector ETV
attr interpolationmode sample-hold
vector 493 scenario.client[7].tcp.conn-121 unacked:vector ETV
attr interpolationmode sample-hold
vector 494 scenario.client[7].tcp.conn-121 cwnd:vector ETV
attr interpolationmode sample-hold
vector 495 scenario.client[7].tcp.conn-121 ssthresh:vector ETV
attr interpolationmode sample-hold
vector 496 scenario.client[7].tcp.conn-121 dupAcks:vector ETV
attr interpolationmode sample-hold
vector 497 scenario.client[7].tcp.conn-122 rcvSeq:vector ETV
attr interpolationmode sample-hold
vector 498 scenario.client[7].tcp.conn-122 rcvAck:vector ETV
attr interpolationmode sample-hold
vector 499 scenario.client[7].tcp.conn-122 unacked:vector ETV
attr interpolationmode sample-hold
vector 500 scenario.client[7].tcp.conn-122 cwnd:vector ETV
attr interpolationmode sample-hold
vector 501 scenario.client[7].tcp.conn-122 ssthresh:vector ETV
attr interpolationmode sample-hold
vector 502 scenario.client[7].tcp.conn-122 dupAcks:vector ETV
attr interpolationmode sample-hold
vector 503 scenario.client[7].tcp.conn-123 rcvSeq:vector ETV
attr interpolationmode sample-hold
vector 504 scenario.client[7].tcp.conn-123 rcvAck:vector ETV
attr interpolationmode sample-hold
vector 505 scenario.client[7].tcp.conn-123 unacked:vector ETV
attr interpolationmode sample-hold
vector 506 scenario.client[7].tcp.conn-123 cwnd:vector ETV
attr interpolationmode sample-hold
vector 507 scenario.client[7].tcp.conn-123 ssthresh:vector ETV
attr interpolationmode sample-hold
vector 508 scenario.client[7].tcp.conn-123 dupAcks:vector ETV
attr interpolationmode sample-hold
vector 509 scenario.client[7].tcp.conn-124 rcvSeq:vector ETV
attr interpolationmode sample-hold
vector 510 scenario.client[7].tcp.conn-124 rcvAck:vector ETV
attr interpolationmode sample-hold
vector 511 scenario.client[7].tcp.conn-124 unacked:vector ETV
attr interpolationmode sample-hold
vector 512 scenario.client[7].tcp.conn-124 cwnd:vector ETV
attr interpolationmode sample-hold
vector 513 scenario.client[7].tcp.conn-124 ssthresh:vector ETV
attr interpolationmode sample-hold
vector 514 scenario.client[7].tcp.conn-124 dupAcks:vector ETV
attr interpolationmode sample-hold
vector 515 scenario.client[7].tcp.conn-125 rcvSeq:vector ETV
attr interpolationmode sample-hold
vector 516 scenario.client[7].tcp.conn-125 rcvAck:vector ETV
attr interpolationmode sample-hold
vector 517 scenario.client[7].tcp.conn-125 unacked:vector ETV
attr interpolationmode sample-hold
vector 518 scenario.client[7].tcp.conn-125 cwnd:vector ETV
attr interpolationmode sample-hold
vector 519 scenario.client[7].tcp.conn-125 ssthresh:vector ETV
attr interpolationmode sample-hold
vector 520 scenario.client[7].tcp.conn-125 dupAcks:vector ETV
attr interpolationmode sample-hold
vector 521 scenario.client[7].tcp.conn-126 rcvSeq:vector ETV
attr interpolationmode sample-hold
vector 522 scenario.client[7].tcp.conn-126 rcvAck:vector ETV
attr interpolationmode sample-hold
vector 523 scenario.client[7].tcp.conn-126 unacked:vector ETV
attr interpolationmode sample-hold
vector 524 scenario.client[7].tcp.conn-126 cwnd:vector ETV
attr interpolationmode sample-hold
vector 525 scenario.client[7].tcp.conn-126 ssthresh:vector ETV
attr interpolationmode sample-hold
vector 526 scenario.client[7].tcp.conn-126 dupAcks:vector ETV
attr interpolationmode sample-hold
vector 527 scenario.client[7].tcp.conn-127 rcvSeq:vector ETV
attr interpolationmode sample-hold
vector 528 scenario.client[7].tcp.conn-127 rcvAck:vector ETV
attr interpolationmode sample-hold
vector 529 scenario.client[7].tcp.conn-127 unacked:vector ETV
attr interpolationmode sample-hold
vector 530 scenario.client[7].tcp.conn-127 cwnd:vector ETV
attr interpolationmode sample-hold
vector 531 scenario.client[7].tcp.conn-127 ssthresh:vector ETV
attr interpolationmode sample-hold
vector 532 scenario.client[7].tcp.conn-127 dupAcks:vector ETV
attr interpolationmode sample-hold
vector 533 scenario.client[0].tcp.conn-114 rtt:vector ETV
attr interpolationmode sample-hold
vector 534 scenario.client[0].tcp.conn-114 srtt:vector ETV
attr interpolationmode sample-hold
vector 535 scenario.client[0].tcp.conn-114 rttvar:vector ETV
attr interpolationmode sample-hold
vector 536 scenario.client[0].tcp.conn-114 rto:vector ETV
attr interpolationmode sample-hold
vector 537 scenario.client[0].tcp.conn-114 cwnd:vector ETV
attr interpolationmode sample-hold
vector 538 scenario.client[0].tcp.conn-114 ssthresh:vector ETV
attr interpolationmode sample-hold
vector 539 scenario.client[0].tcp.conn-114 dupAcks:vector ETV
attr interpolationmode sample-hold
vector 540 scenario.client[1].tcp.conn-115 rtt:vector ETV
attr interpolationmode sample-hold
vector 541 scenario.client[1].tcp.conn-115 srtt:vector ETV
attr interpolationmode sample-hold
vector 542 scenario.client[1].tcp.conn-115 rttvar:vector ETV
attr interpolationmode sample-hold
vector 543 scenario.client[1].tcp.conn-115 rto:vector ETV
attr interpolationmode sample-hold
vector 544 scenario.client[1].tcp.conn-115 cwnd:vector ETV
attr interpolationmode sample-hold
vector 545 scenario.client[1].tcp.conn-115 ssthresh:vector ETV
attr interpolationmode sample-hold
vector 546 scenario.client[1].tcp.conn-115 dupAcks:vector ETV
attr interpolationmode sample-hold
vector 547 scenario.client[2].tcp.conn-116 rtt:vector ETV
attr interpolationmode sample-hold
vector 548 scenario.client[2].tcp.conn-116 srtt:vector ETV
attr interpolationmode sample-hold
vector 549 scenario.client[2].tcp.conn-116 rttvar:vector ETV
attr interpolationmode sample-hold
vector 550 scenario.client[2].tcp.conn-116 rto:vector ETV
attr interpolationmode sample-hold
vector 551 scenario.client[2].tcp.conn-116 cwnd:vector ETV
attr interpolationmode sample-hold
vector 552 scenario.client[2].tcp.conn-116 ssthresh:vector ETV
attr interpolationmode sample-hold
vector 553 scenario.client[2].tcp.conn-116 dupAcks:vector ETV
attr interpolationmode sample-hold
vector 554 scenario.client[3].tcp.conn-117 rtt:vector ETV
attr interpolationmode sample-hold
vector 555 scenario.client[3].tcp.conn-117 srtt:vector ETV
attr interpolationmode sample-hold
vector 556 scenario.client[3].tcp.conn-117 rttvar:vector ETV
attr interpolationmode sample-hold
vector 557 scenario.client[3].tcp.conn-117 rto:vector ETV
attr interpolationmode sample-hold
vector 558 scenario.client[3].tcp.conn-117 cwnd:vector ETV
attr interpolationmode sample-hold
vector 559 scenario.client[3].tcp.conn-117 ssthresh:vector ETV
attr interpolationmode sample-hold
vector 560 scenario.client[3].tcp.conn-117 dupAcks:vector ETV
attr interpolationmode sample-hold
vector 561 scenario.client[4].tcp.conn-118 rtt:vector ETV
attr interpolationmode sample-hold
vector 562 scenario.client[4].tcp.conn-118 srtt:vector ETV
attr interpolationmode sample-hold
vector 563 scenario.client[4].tcp.conn-118 rttvar:vector ETV
attr interpolationmode sample-hold
vector 564 scenario.client[4].tcp.conn-118 rto:vector ETV
attr interpolationmode sample-hold
vector 565 scenario.client[4].tcp.conn-118 cwnd:vector ETV
attr interpolationmode sample-hold
vector 566 scenario.client[4].tcp.conn-118 ssthresh:vector ETV
attr interpolationmode sample-hold
vector 567 scenario.client[4].tcp.conn-118 dupAcks:vector ETV
attr interpolationmode sample-hold
vector 568 scenario.client[5].tcp.conn-119 rtt:vector ETV
attr interpolationmode sample-hold
vector 569 scenario.client[5].tcp.conn-119 srtt:vector ETV
attr interpolationmode sample-hold
vector 570 scenario.client[5].tcp.conn-119 rttvar:vector ETV
attr interpolationmode sample-hold
vector 571 scenario.client[5].tcp.conn-119 rto:vector ETV
attr interpolationmode sample-hold
vector 572 scenario.client[5].tcp.conn-119 cwnd:vector ETV
attr interpolationmode sample-hold
vector 573 scenario.client[5].tcp.conn-119 ssthresh:vector ETV
attr interpolationmode sample-hold
vector 574 scenario.client[5].tcp.conn-119 dupAcks:vector ETV
attr interpolationmode sample-hold
vector 575 scenario.client[6].tcp.conn-120 rtt:vector ETV
attr interpolationmode sample-hold
vector 576 scenario.client[6].tcp.conn-120 srtt:vector ETV
attr interpolationmode sample-hold
vector 577 scenario.client[6].tcp.conn-120 rttvar:vector ETV
attr interpolationmode sample-hold
vector 578 scenario.client[6].tcp.conn-120 rto:vector ETV
attr interpolationmode sample-hold
vector 579 scenario.client[6].tcp.conn-120 cwnd:vector ETV
attr interpolationmode sample-hold
vector 580 scenario.client[6].tcp.conn-120 ssthresh:vector ETV
attr interpolationmode sample-hold
vector 581 scenario.client[6].tcp.conn-120 dupAcks:vector ETV
attr interpolationmode sample-hold
vector 582 scenario.client[5].tcp.conn-128 tcpRcvQueueBytes:vector ETV
attr interpolationmode sample-hold
vector 583 scenario.client[5].tcp.conn-128 rcvAdv:vector ETV
attr interpolationmode sample-hold
vector 584 scenario.client[5].tcp.conn-128 rcvWnd:vector ETV
attr interpolationmode sample-hold
vector 585 scenario.client[5].tcp.conn-128 sndAck:vector ETV
attr interpolationmode sample-hold
vector 586 scenario.client[5].tcp.conn-129 tcpRcvQueueBytes:vector ETV
attr interpolationmode sample-hold
vector 587 scenario.client[5].tcp.conn-129 rcvAdv:vector ETV
attr interpolationmode sample-hold
vector 588 scenario.client[5].tcp.conn-129 rcvWnd:vector ETV
attr interpolationmode sample-hold
vector 589 scenario.client[5].tcp.conn-129 sndAck:vector ETV
attr interpolationmode sample-hold
vector 590 scenario.client[5].tcp.conn-130 tcpRcvQueueBytes:vector ETV
attr interpolationmode sample-hold
vector 591 scenario.client[5].tcp.conn-130 rcvAdv:vector ETV
attr interpolationmode sample-hold
vector 592 scenario.client[5].tcp.conn-130 rcvWnd:vector ETV
attr interpolationmode sample-hold
vector 593 scenario.client[5].tcp.conn-130 sndAck:vector ETV
attr interpolationmode sample-hold
vector 594 scenario.client[5].tcp.conn-131 tcpRcvQueueBytes:vector ETV
attr interpolationmode sample-hold
vector 595 scenario.client[5].tcp.conn-131 rcvAdv:vector ETV
attr interpolationmode sample-hold
vector 596 scenario.client[5].tcp.conn-131 rcvWnd:vector ETV
attr interpolationmode sample-hold
vector 597 scenario.client[5].tcp.conn-131 sndAck:vector ETV
attr interpolationmode sample-hold
vector 598 scenario.client[5].tcp.conn-132 tcpRcvQueueBytes:vector ETV
attr interpolationmode sample-hold
vector 599 scenario.client[5].tcp.conn-132 rcvAdv:vector ETV
attr interpolationmode sample-hold
vector 600 scenario.client[5].tcp.conn-132 rcvWnd:vector ETV
attr interpolationmode sample-hold
vector 601 scenario.client[5].tcp.conn-132 sndAck:vector ETV
attr interpolationmode sample-hold
vector 602 scenario.client[5].tcp.conn-133 tcpRcvQueueBytes:vector ETV
attr interpolationmode sample-hold
vector 603 scenario.client[5].tcp.conn-133 rcvAdv:vector ETV
attr interpolationmode sample-hold
vector 604 scenario.client[5].tcp.conn-133 rcvWnd:vector ETV
attr interpolationmode sample-hold
vector 605 scenario.client[5].tcp.conn-133 sndAck:vector ETV
attr interpolationmode sample-hold
vector 606 scenario.client[5].ppp[0].ppp rcvdPkFromHl:vector(packetBytes) ETV
attr interpolationmode none
attr source packetReceivedFromUpper
attr title "packets received from higher layer, vector(packetBytes)"
vector 607 scenario.client[5].ppp[0].ppp.queue packetPushed:vector(packetBytes) ETV
attr interpolationmode none
attr title "packet pushed, vector(packetBytes)"
vector 608 scenario.client[5].ppp[0].ppp.queue queueLength:vector ETV
attr interpolationmode sample-hold
attr source "count(packetPushed) - count(packetPopped) - count(packetRemoved) - count(packetDropped)"
attr title "queue length, vector"
vector 609 scenario.client[5].ppp[0].ppp.queue packetPopped:vector(packetBytes) ETV
attr interpolationmode none
attr title "packet popped, vector(packetBytes)"
vector 610 scenario.client[5].ppp[0].ppp.queue queueingTime:vector ETV
attr interpolationmode none
attr source queueingTime(packetPopped)
attr title "queueing times, vector"
attr unit s
vector 611 scenario.client[5].ppp[0].ppp txPk:vector(packetBytes) ETV
attr interpolationmode none
attr source packetSentToLower
attr title "packets transmitted, vector(packetBytes)"
vector 612 scenario.client[5].ppp[1].ppp rcvdPkFromHl:vector(packetBytes) ETV
attr interpolationmode none
attr source packetReceivedFromUpper
attr title "packets received from higher layer, vector(packetBytes)"
vector 613 scenario.client[5].ppp[1].ppp.queue packetPushed:vector(packetBytes) ETV
attr interpolationmode none
attr title "packet pushed, vector(packetBytes)"
vector 614 scenario.client[5].ppp[1].ppp.queue queueLength:vector ETV
attr interpolationmode sample-hold
attr source "count(packetPushed) - count(packetPopped) - count(packetRemoved) - count(packetDropped)"
attr title "queue length, vector"
vector 615 scenario.client[5].ppp[1].ppp.queue packetPopped:vector(packetBytes) ETV
attr interpolationmode none
attr title "packet popped, vector(packetBytes)"
vector 616 scenario.client[5].ppp[1].ppp.queue queueingTime:vector ETV
attr interpolationmode none
attr source queueingTime(packetPopped)
attr title "queueing times, vector"
attr unit s
vector 617 scenario.client[5].ppp[1].ppp txPk:vector(packetBytes) ETV
attr interpolationmode none
attr source packetSentToLower
attr title "packets transmitted, vector(packetBytes)"
vector 618 scenario.client[5].ppp[2].ppp rcvdPkFromHl:vector(packetBytes) ETV
attr interpolationmode none
attr source packetReceivedFromUpper
attr title "packets received from higher layer, vector(packetBytes)"
vector 619 scenario.client[5].ppp[2].ppp.queue packetPushed:vector(packetBytes) ETV
attr interpolationmode none
attr title "packet pushed, vector(packetBytes)"
vector 620 scenario.client[5].ppp[2].ppp.queue queueLength:vector ETV
attr interpolationmode sample-hold
attr source "count(packetPushed) - count(packetPopped) - count(packetRemoved) - count(packetDropped)"
attr title "queue length, vector"
vector 621 scenario.client[5].ppp[2].ppp.queue packetPopped:vector(packetBytes) ETV
attr interpolationmode none
attr title "packet popped, vector(packetBytes)"
vector 622 scenario.client[5].ppp[2].ppp.queue queueingTime:vector ETV
attr interpolationmode none
attr source queueingTime(packetPopped)
[...]
2922	3685770 223 9976 49100 2.303576 6.307684 7 4294967295 4294967295 30064771065 1.2912720845584e+020
2923	3685993 160 9976 49100 2.303576 6.307684 7 0 0 0 0
2924	3686153 245 9993 19869 2.303984 3.005196 9 575674 751072 5356464 3215313583392
2925	3686398 200 9993 19869 2.303984 3.005196 9 0 0 0 0
2926	3686598 777 9993 49234 2.303984 6.308068 28 583179 583207 16329390 9523177779780
2927	3687375 51 9993 10097 2.303984 2.305776 2 7504 7504 15008 112620032
2928	3687426 1208 9993 49234 2.303984 6.308068 53 0 1 1 1
2929	3688634 696 9993 49234 2.303984 6.308068 27 7503 7504 202607 1520355425
2930	3689330 750 9993 49234 2.303984 6.308068 27 575675 575703 15543604 8948282420834
2931	3690080 777 9994 49235 2.303984 6.308068 28 583179 583207 16329390 9523177779780
2932	3690857 51 9994 10098 2.303984 2.305776 2 7504 7504 15008 112620032
2933	3690908 1208 9994 49235 2.303984 6.308068 53 0 1 1 1
2934	3692116 696 9994 49235 2.303984 6.308068 27 7503 7504 202607 1520355425
2935	3692812 750 9994 49235 2.303984 6.308068 27 575675 575703 15543604 8948282420834
2936	3693562 777 9995 49236 2.303984 6.308068 28 583179 583207 16329390 9523177779780
2937	3694339 51 9995 10099 2.303984 2.305776 2 7504 7504 15008 112620032
2938	3694390 1208 9995 49236 2.303984 6.308068 53 0 1 1 1
2939	3695598 696 9995 49236 2.303984 6.308068 27 7503 7504 202607 1520355425
2940	3696294 750 9995 49236 2.303984 6.308068 27 575675 575703 15543604 8948282420834
2941	3697044 777 9996 49237 2.303984 6.308068 28 583179 583207 16329390 9523177779780
2942	3697821 51 9996 10100 2.303984 2.305776 2 7504 7504 15008 112620032
2943	3697872 1208 9996 49237 2.303984 6.308068 53 0 1 1 1
2944	3699080 696 9996 49237 2.303984 6.308068 27 7503 7504 202607 1520355425
2945	3699776 750 9996 49237 2.303984 6.308068 27 575675 575703 15543604 8948282420834
2946	3700526 777 9997 49238 2.303984 6.308068 28 583179 583207 16329390 9523177779780
2947	3701303 51 9997 10101 2.303984 2.305776 2 7504 7504 15008 112620032
2948	3701354 1208 9997 49238 2.303984 6.308068 53 0 1 1 1
2949	3702562 696 9997 49238 2.303984 6.308068 27 7503 7504 202607 1520355425
2950	3703258 750 9997 49238 2.303984 6.308068 27 575675 575703 15543604 8948282420834
2951	3704008 1026 9998 46152 2.303984 6.000884 37 583179 583216 21578268 12584368920364
2952	3705034 51 9998 10102 2.303984 2.305776 2 7504 7504 15008 112620032
2953	3705085 1616 9998 46152 2.303984 6.000884 71 0 1 1 1
2954	3706701 927 9998 46152 2.303984 6.000884 36 7503 7504 270143 2027145569
2955	3707628 999 9998 46152 2.303984 6.000884 36 575675 575712 20724946 11931205190538
2956	3708627 999 9999 49770 2.303984 7.000884 36 583179 583215 20995052 12244228017708
2957	3709626 51 9999 10103 2.303984 2.305776 2 7504 7504 15008 112620032
2958	3709677 1572 9999 49770 2.303984 7.000884 69 0 1 1 1
2959	3711249 902 9999 49770 2.303984 7.000884 35 7503 7504 262639 1970835553
2960	3712151 972 9999 49770 2.303984 7.000884 35 575675 575711 20149234 11599760883594
2961	3713123 1001 10000 46036 2.303984 5.000884 36 583179 583215 20995052 12244228017708
2962	3714124 52 10000 10104 2.303984 2.305776 2 7504 7504 15008 112620032
2963	3714176 1573 10000 46036 2.303984 5.000884 69 0 1 1 1
2964	3715749 903 10000 46036 2.303984 5.000884 35 7503 7504 262639 1970835553
2965	3716652 973 10000 46036 2.303984 5.000884 35 575675 575711 20149234 11599760883594
2966	3717625 749 10041 49579 2.304892 6.308944 27 575996 575997 15551918 8957857536250
2967	3718374 749 10041 49579 2.304892 6.308944 27 575675 575703 15543604 8948282420834
2968	3719123 695 10041 49579 2.304892 6.308944 27 7503 7504 202607 1520355425
2969	3719818 1204 10041 49579 2.304892 6.308944 52 0 16 321 3387
2970	3721022 749 10042 49580 2.304892 6.308944 27 575996 575997 15551918 8957857536250
2971	3721771 749 10042 49580 2.304892 6.308944 27 575675 575703 15543604 8948282420834
2972	3722520 695 10042 49580 2.304892 6.308944 27 7503 7504 202607 1520355425
2973	3723215 1204 10042 49580 2.304892 6.308944 52 0 16 321 3387
2974	3724419 749 10043 49581 2.304892 6.308944 27 575996 575997 15551918 8957857536250
2975	3725168 749 10043 49581 2.304892 6.308944 27 575675 575703 15543604 8948282420834
2976	3725917 695 10043 49581 2.304892 6.308944 27 7503 7504 202607 1520355425
2977	3726612 1204 10043 49581 2.304892 6.308944 52 0 16 321 3387
2978	3727816 749 10044 49582 2.304892 6.308944 27 575996 575997 15551918 8957857536250
2979	3728565 749 10044 49582 2.304892 6.308944 27 575675 575703 15543604 8948282420834
2980	3729314 695 10044 49582 2.304892 6.308944 27 7503 7504 202607 1520355425
2981	3730009 1204 10044 49582 2.304892 6.308944 52 0 16 321 3387
2982	3731213 749 10045 49583 2.304892 6.308944 27 575996 575997 15551918 8957857536250
2983	3731962 749 10045 49583 2.304892 6.308944 27 575675 575703 15543604 8948282420834
2984	3732711 695 10045 49583 2.304892 6.308944 27 7503 7504 202607 1520355425
2985	3733406 1204 10045 49583 2.304892 6.308944 52 0 16 321 3387
2986	3734610 999 10046 46201 2.304892 6.00176 36 575996 575997 20735891 11943810432331
2987	3735609 999 10046 46201 2.304892 6.00176 36 575675 575712 20724946 11931205190538
2988	3736608 927 10046 46201 2.304892 6.00176 36 7503 7504 270143 2027145569
2989	3737535 1639 10046 46201 2.304892 6.00176 70 0 26 1002 19084
2990	3739174 971 10047 49819 2.304892 7.00176 35 575996 575997 20159894 11612037888322
2991	3740145 971 10047 49819 2.304892 7.00176 35 575675 575711 20149234 11599760883594
2992	3741116 901 10047 49819 2.304892 7.00176 35 7503 7504 262639 1970835553
2993	3742017 1592 10047 49819 2.304892 7.00176 68 0 27 965 18455
2994	3743609 971 10048 46085 2.304892 5.00176 35 575996 575997 20159894 11612037888322
2995	3744580 971 10048 46085 2.304892 5.00176 35 575675 575711 20149234 11599760883594
2996	3745551 901 10048 46085 2.304892 5.00176 35 7503 7504 262639 1970835553
2997	3746452 1591 10048 46085 2.304892 5.00176 68 0 27 961 18251
2998	3748043 723 10097 49234 2.305776 6.308068 26 575675 575702 14967901 8616848476625
2999	3748766 723 10097 49234 2.305776 6.308068 26 575997 575997 14975922 8626086144234
3000	3749489 23 10097 10097 2.305776 2.305776 1 0 0 0 0
3001	3749512 26 10097 10097 2.305776 2.305776 1 1072 1072 1072 1149184
3002	3749538 32 10097 10097 2.305776 2.305776 1 4294967295 4294967295 4294967295 1.844674406512e+019
3003	3749570 593 10097 49234 2.305776 6.308068 26 0 0 0 0
3004	3750163 723 10098 49235 2.305776 6.308068 26 575675 575702 14967901 8616848476625
3005	3750886 723 10098 49235 2.305776 6.308068 26 575997 575997 14975922 8626086144234
3006	3751609 23 10098 10098 2.305776 2.305776 1 0 0 0 0
3007	3751632 26 10098 10098 2.305776 2.305776 1 1072 1072 1072 1149184
3008	3751658 32 10098 10098 2.305776 2.305776 1 4294967295 4294967295 4294967295 1.844674406512e+019
3009	3751690 593 10098 49235 2.305776 6.308068 26 0 0 0 0
3010	3752283 723 10099 49236 2.305776 6.308068 26 575675 575702 14967901 8616848476625
3011	3753006 723 10099 49236 2.305776 6.308068 26 575997 575997 14975922 8626086144234
3012	3753729 23 10099 10099 2.305776 2.305776 1 0 0 0 0
3013	3753752 26 10099 10099 2.305776 2.305776 1 1072 1072 1072 1149184
3014	3753778 32 10099 10099 2.305776 2.305776 1 4294967295 4294967295 4294967295 1.844674406512e+019
3015	3753810 593 10099 49236 2.305776 6.308068 26 0 0 0 0
3016	3754403 723 10100 49237 2.305776 6.308068 26 575675 575702 14967901 8616848476625
3017	3755126 723 10100 49237 2.305776 6.308068 26 575997 575997 14975922 8626086144234
3018	3755849 23 10100 10100 2.305776 2.305776 1 0 0 0 0
3019	3755872 26 10100 10100 2.305776 2.305776 1 1072 1072 1072 1149184
3020	3755898 32 10100 10100 2.305776 2.305776 1 4294967295 4294967295 4294967295 1.844674406512e+019
3021	3755930 593 10100 49237 2.305776 6.308068 26 0 0 0 0
3022	3756523 723 10101 49238 2.305776 6.308068 26 575675 575702 14967901 8616848476625
3023	3757246 723 10101 49238 2.305776 6.308068 26 575997 575997 14975922 8626086144234
3024	3757969 23 10101 10101 2.305776 2.305776 1 0 0 0 0
3025	3757992 26 10101 10101 2.305776 2.305776 1 1072 1072 1072 1149184
3026	3758018 32 10101 10101 2.305776 2.305776 1 4294967295 4294967295 4294967295 1.844674406512e+019
3027	3758050 593 10101 49238 2.305776 6.308068 26 0 0 0 0
3028	3758643 972 10102 46152 2.305776 6.000884 35 575675 575711 20149234 11599760883594
3029	3759615 972 10102 46152 2.305776 6.000884 35 575997 575997 20159895 11612039040315
3030	3760587 23 10102 10102 2.305776 2.305776 1 0 0 0 0
3031	3760610 26 10102 10102 2.305776 2.305776 1 1072 1072 1072 1149184
3032	3760636 32 10102 10102 2.305776 2.305776 1 4294967295 4294967295 4294967295 1.844674406512e+019
3033	3760668 797 10102 46152 2.305776 6.000884 35 0 0 0 0
3034	3761465 945 10103 49770 2.305776 7.000884 34 575675 575710 19573523 11268317728073
3035	3762410 945 10103 49770 2.305776 7.000884 34 575997 575997 19583898 11280266496306
3036	3763355 23 10103 10103 2.305776 2.305776 1 0 0 0 0
3037	3763378 26 10103 10103 2.305776 2.305776 1 1072 1072 1072 1149184
3038	3763404 32 10103 10103 2.305776 2.305776 1 4294967295 4294967295 4294967295 1.844674406512e+019
3039	3763436 775 10103 49770 2.305776 7.000884 34 0 0 0 0
3040	3764211 945 10104 46036 2.305776 5.000884 34 575675 575710 19573523 11268317728073
3041	3765156 945 10104 46036 2.305776 5.000884 34 575997 575997 19583898 11280266496306
3042	3766101 23 10104 10104 2.305776 2.305776 1 0 0 0 0
3043	3766124 26 10104 10104 2.305776 2.305776 1 1072 1072 1072 1149184
3044	3766150 32 10104 10104 2.305776 2.305776 1 4294967295 4294967295 4294967295 1.844674406512e+019
3045	3766182 775 10104 46036 2.305776 5.000884 34 0 0 0 0
3046	3766957 203 10177 49060 2.306652 6.307684 7 0.00176 0.004692 0.015628 4.206536e-005
3047	3767160 236 10177 49060 2.306652 6.307684 7 0.00022 0.001319675156 0.006390273912 6.941573812949e-006
3048	3767396 238 10177 49060 2.306652 6.307684 7 0.295330848137 0.65647 3.193241464288 1.5582467850535
3049	3767634 235 10177 49060 2.306652 6.307684 7 1.182643067704 2.6261 12.779356131064 24.952684227442
3050	3767869 674 10177 49579 2.306652 6.308944 26 1072 12328 154904 1257494592
3051	3768543 825 10177 49579 2.306652 6.308944 26 4294967295 4294967295 111669149670 4.7961534569311e+020
3052	3769368 591 10177 49579 2.306652 6.308944 26 0 0 0 0
3053	3769959 203 10178 49068 2.306652 6.307684 7 0.00176 0.004692 0.015628 4.206536e-005
3054	3770162 236 10178 49068 2.306652 6.307684 7 0.00022 0.001319675156 0.006390273912 6.941573812949e-006
3055	3770398 238 10178 49068 2.306652 6.307684 7 0.295330848137 0.65647 3.193241464288 1.5582467850535
3056	3770636 235 10178 49068 2.306652 6.307684 7 1.182643067704 2.6261 12.779356131064 24.952684227442
3057	3770871 674 10178 49580 2.306652 6.308944 26 1072 12328 154904 1257494592
3058	3771545 825 10178 49580 2.306652 6.308944 26 4294967295 4294967295 111669149670 4.7961534569311e+020
3059	3772370 591 10178 49580 2.306652 6.308944 26 0 0 0 0
3060	3772961 203 10179 49076 2.306652 6.307684 7 0.00176 0.004692 0.015628 4.206536e-005
3061	3773164 236 10179 49076 2.306652 6.307684 7 0.00022 0.001319675156 0.006390273912 6.941573812949e-006
3062	3773400 238 10179 49076 2.306652 6.307684 7 0.295330848137 0.65647 3.193241464288 1.5582467850535
3063	3773638 235 10179 49076 2.306652 6.307684 7 1.182643067704 2.6261 12.779356131064 24.952684227442
3064	3773873 674 10179 49581 2.306652 6.308944 26 1072 12328 154904 1257494592
3065	3774547 825 10179 49581 2.306652 6.308944 26 4294967295 4294967295 111669149670 4.7961534569311e+020
3066	3775372 591 10179 49581 2.306652 6.308944 26 0 0 0 0
3067	3775963 203 10180 49084 2.306652 6.307684 7 0.00176 0.004692 0.015628 4.206536e-005
3068	3776166 236 10180 49084 2.306652 6.307684 7 0.00022 0.001319675156 0.006390273912 6.941573812949e-006
3069	3776402 238 10180 49084 2.306652 6.307684 7 0.295330848137 0.65647 3.193241464288 1.5582467850535
3070	3776640 235 10180 49084 2.306652 6.307684 7 1.182643067704 2.6261 12.779356131064 24.952684227442
3071	3776875 674 10180 49582 2.306652 6.308944 26 1072 12328 154904 1257494592
3072	3777549 825 10180 49582 2.306652 6.308944 26 4294967295 4294967295 111669149670 4.7961534569311e+020
3073	3778374 591 10180 49582 2.306652 6.308944 26 0 0 0 0
3074	3778965 203 10181 49092 2.306652 6.307684 7 0.00176 0.004692 0.015628 4.206536e-005
3075	3779168 236 10181 49092 2.306652 6.307684 7 0.00022 0.001319675156 0.006390273912 6.941573812949e-006
3076	3779404 238 10181 49092 2.306652 6.307684 7 0.295330848137 0.65647 3.193241464288 1.5582467850535
3077	3779642 235 10181 49092 2.306652 6.307684 7 1.182643067704 2.6261 12.779356131064 24.952684227442
3078	3779877 674 10181 49583 2.306652 6.308944 26 1072 12328 154904 1257494592
3079	3780551 825 10181 49583 2.306652 6.308944 26 4294967295 4294967295 111669149670 4.7961534569311e+020
3080	3781376 591 10181 49583 2.306652 6.308944 26 0 0 0 0
3081	3781967 145 10182 46201 2.306652 6.00176 5 0.00176 0.00938 0.018164 0.000109555216
3082	3782112 165 10182 46201 2.306652 6.00176 5 0.00022 0.001779757813 0.005722983399 8.8962776299783e-006
3083	3782277 167 10182 46201 2.306652 6.00176 5 0.386015839356 0.65647 2.562146944825 1.358665482898
3084	3782444 163 10182 46201 2.306652 6.00176 5 1.54584064551 2.6261 10.254310762699 21.75965951383
3085	3782607 918 10182 46201 2.306652 6.00176 35 1072 18760 338216 4284445248
3086	3783525 1111 10182 46201 2.306652 6.00176 35 4294967295 4294967295 150323855325 6.4563604227919e+020
3087	3784636 796 10182 46201 2.306652 6.00176 35 0 0 0 0
3088	3785432 145 10183 49819 2.306652 7.00176 5 0.00176 0.00938 0.017788 0.000107061584
3089	3785577 165 10183 49819 2.306652 7.00176 5 0.00022 0.001736163086 0.005634858399 8.5866987161078e-006
3090	3785742 167 10183 49819 2.306652 7.00176 5 0.385975649903 0.65647 2.562059755372 1.3585929903265
3091	3785909 164 10183 49819 2.306652 7.00176 5 1.545638762698 2.6261 10.253873879887 21.758205238716
3092	3786073 891 10183 49819 2.306652 7.00176 34 1072 18224 319456 3932507648
3093	3786964 1079 10183 49819 2.306652 7.00176 34 4294967295 4294967295 146028888030 6.2718929821407e+020
3094	3788043 773 10183 49819 2.306652 7.00176 34 0 0 0 0
3095	3788816 145 10184 46085 2.306652 5.00176 5 0.00176 0.00938 0.017788 0.000107061584
3096	3788961 165 10184 46085 2.306652 5.00176 5 0.00022 0.001736163086 0.005634858399 8.5866987161078e-006
3097	3789126 167 10184 46085 2.306652 5.00176 5 0.385975649903 0.65647 2.562059755372 1.3585929903265
3098	3789293 164 10184 46085 2.306652 5.00176 5 1.545638762698 2.6261 10.253873879887 21.758205238716
3099	3789457 891 10184 46085 2.306652 5.00176 34 1072 18224 319456 3932507648
3100	3790348 1079 10184 46085 2.306652 5.00176 34 4294967295 4294967295 146028888030 6.2718929821407e+020
3101	3791427 773 10184 46085 2.306652 5.00176 34 0 0 0 0
3102	3792200 339 16628 48845 3.004288 6.307184 15 0 0 0 0
3103	3792539 440 16628 48845 3.004288 6.307184 16 7504 758803 11389549 8636786202151
3104	3792979 384 16628 48845 3.004288 6.307184 15 7504 7504 112560 844650240
3105	3793363 409 16628 48845 3.004288 6.307184 15 0 751299 10518186 7902302623614
3106	3793772 344 16638 49427 3.004288 6.308444 15 0 0 0 0
3107	3794116 445 16638 49427 3.004288 6.308444 16 7504 758803 11389549 8636786202151
3108	3794561 389 16638 49427 3.004288 6.308444 15 7504 7504 112560 844650240
3109	3794950 414 16638 49427 3.004288 6.308444 15 0 751299 10518186 7902302623614
3110	3795364 713 16666 49670 3.004288 6.309704 30 40 44 1222 49806
3111	3796077 713 16666 49670 3.004288 6.309704 30 40 44 1222 49806
3112	3796790 1363 16666 49670 3.004288 6.309704 60 0 3 48 70
3113	3798153 710 16666 49670 3.004288 6.309704 30 40 44 1222 49806
3114	3798863 772 16666 49670 3.004288 6.309704 30 0 0.00102 0.007868 5.234256e-006
3115	3799635 710 16666 49670 3.004288 6.309704 30 47 51 1432 68384
3116	3800345 718 16675 49487 3.004288 6.308828 30 40 44 1222 49806
3117	3801063 718 16675 49487 3.004288 6.308828 30 40 44 1222 49806
3118	3801781 1371 16675 49598 3.004288 6.309204 60 0 3 46 66
3119	3803152 713 16675 49598 3.004288 6.309204 30 40 44 1222 49806
3120	3803865 783 16675 49598 3.004288 6.309204 30 0 0.00102 0.00786 4.939408e-006
3121	3804648 713 16675 49598 3.004288 6.309204 30 47 51 1432 68384
3122	3805361 713 19865 49700 3.005196 6.31058 30 47 51 1432 68384
3123	3806074 713 19865 49700 3.005196 6.31058 30 40 44 1222 49806
3124	3806787 711 19866 49676 3.005196 6.31008 30 47 51 1432 68384
3125	3807498 711 19866 49676 3.005196 6.31008 30 40 44 1222 49806
3126	3808209 447 19869 49469 3.005196 6.308828 16 758577 758591 12137336 9207182823894
3127	3808656 52 19869 23667 3.005196 3.006988 2 7504 7504 15008 112620032
3128	3808708 665 19869 49469 3.005196 6.308828 29 0 1 1 1
3129	3809373 389 19869 49469 3.005196 6.308828 15 7503 7504 112559 844635233
3130	3809762 419 19869 49469 3.005196 6.308828 15 751073 751087 11266200 8461817496280
3131	3810181 447 19870 49652 3.005196 6.309704 16 758577 758591 12137336 9207182823894
3132	3810628 52 19870 23668 3.005196 3.006988 2 7504 7504 15008 112620032
3133	3810680 665 19870 49652 3.005196 6.309704 29 0 1 1 1
3134	3811345 389 19870 49652 3.005196 6.309704 15 7503 7504 112559 844635233
3135	3811734 419 19870 49652 3.005196 6.309704 15 751073 751087 11266200 8461817496280
3136	3812153 412 22562 49694 3.006104 6.31008 15 751298 751299 11269484 8466751308418
3137	3812565 412 22562 49694 3.006104 6.31008 15 751073 751087 11266200 8461817496280
3138	3812977 382 22562 49694 3.006104 6.31008 15 7503 7504 112559 844635233
3139	3813359 630 22562 49694 3.006104 6.31008 28 0 4 40 86
3140	3813989 414 22563 49712 3.006104 6.31058 15 751298 751299 11269484 8466751308418
3141	3814403 414 22563 49712 3.006104 6.31058 15 751073 751087 11266200 8461817496280
3142	3814817 384 22563 49712 3.006104 6.31058 15 7503 7504 112559 844635233
3143	3815201 637 22563 49712 3.006104 6.31058 28 0 4 42 90
3144	3815838 391 23667 49469 3.006988 6.308828 14 751073 751086 10515113 7897685814711
3145	3816229 391 23667 49469 3.006988 6.308828 14 751299 751299 10518186 7902302623614
3146	3816620 23 23667 23667 3.006988 3.006988 1 0 0 0 0
3147	3816643 26 23667 23667 3.006988 3.006988 1 1072 1072 1072 1149184
3148	3816669 32 23667 23667 3.006988 3.006988 1 4294967295 4294967295 4294967295 1.844674406512e+019
3149	3816701 321 23667 49469 3.006988 6.308828 14 0 0 0 0
3150	3817022 391 23668 49652 3.006988 6.309704 14 751073 751086 10515113 7897685814711
3151	3817413 391 23668 49652 3.006988 6.309704 14 751299 751299 10518186 7902302623614
3152	3817804 23 23668 23668 3.006988 3.006988 1 0 0 0 0
3153	3817827 26 23668 23668 3.006988 3.006988 1 1072 1072 1072 1149184
3154	3817853 32 23668 23668 3.006988 3.006988 1 4294967295 4294967295 4294967295 1.844674406512e+019
3155	3817885 321 23668 49652 3.006988 6.309704 14 0 0 0 0
3156	3818206 230 24905 49628 3.007864 6.30932 8 0.00176 0.002404 0.015852 3.1857104e-005
3157	3818436 268 24905 49628 3.007864 6.30932 8 0.00022 0.001326545306 0.006566182866 6.4606262068505e-006
3158	3818704 269 24905 49628 3.007864 6.30932 8 0.258526008036 0.65647 3.450930306185 1.6243384472722
3159	3818973 266 24905 49628 3.007864 6.30932 8 1.03543057745 2.6261 13.810287407606 26.009035853134
3160	3819239 356 24905 49694 3.007864 6.31008 14 1072 4824 38056 121526208
3161	3819595 440 24905 49694 3.007864 6.31008 14 4294967295 4294967295 60129542130 2.5825441691167e+020
3162	3820035 314 24905 49694 3.007864 6.31008 14 0 0 0 0
3163	3820349 232 24906 49712 3.007864 6.31058 8 0.00176 0.002404 0.016228 3.3322e-005
3164	3820581 269 24906 49712 3.007864 6.31058 8 0.00022 0.001358031634 0.006721778569 6.813429328485e-006
3165	3820850 271 24906 49712 3.007864 6.31058 8 0.258544000224 0.65647 3.451056251498 1.6244229467819
3166	3821121 267 24906 49712 3.007864 6.31058 8 1.03553403253 2.6261 13.810946784561 26.010795367948
3167	3821388 358 24906 49712 3.007864 6.31058 14 1072 4824 38056 121526208
3168	3821746 442 24906 49712 3.007864 6.31058 14 4294967295 4294967295 60129542130 2.5825441691167e+020
3169	3822188 316 24906 49712 3.007864 6.31058 14 0 0 0 0

