file 13464232 1644341021                                        
version 2
run BROADCAST10b-0-20220208-18:23:29-15856
attr configname BROADCAST10b
attr datetime 20220208-18:23:29
attr experiment BROADCAST10b
attr inifile omnetpp.ini
attr iterationvars ""
attr iterationvarsf ""
attr measurement ""
attr network scenario
attr processid 15856
attr repetition 0
attr replication #0
attr resultdir results
attr runnumber 0
attr seedset 0
param *.n 10
param **.client[*].app[0].nPar 10
param **.client[*].app[0].nNPar 2
param **.client[5].app[0].leave 1.0
param **.client[6].app[0].leave 2.0
param **.client[7].app[0].leave 0
param **.client[8].app[0].join 1.5
param **.client[9].app[0].join 2.3
param **.client[4].app[0].numMsg 4
param **.client[4].app[0].sendFrequency 2.5
param **.client[4].app[0].startSend 1.3
param **.client[0].app[0].numMsg 4
param **.client[0].app[0].sendFrequency 2.5
param **.client[0].app[0].startSend 1.8
param **.ppp[*].ppp.queue.typename "\"DropTailQueue\""
param **.tcp.typename "\"Tcp\""
param **.tcp.nagleEnabled false
param **.client[*].app[*].fPar 0
param **.numApps 1
param **.client[*].app[*].typename "\"Node\""
param **.client[*].app[0].localPort index+1000
param **.client[*].app[0].localPortL 1234
param **.client[*].app[0].connectAddress "\"\""
param **.client[*].app[0].connectPort 1234

vector 0 scenario.client[0].ppp[0].ppp transmissionState:vector ETV
attr interpolationmode sample-hold
attr source transmissionStateChanged
attr title "tx state, vector"
vector 1 scenario.client[0].ppp[1].ppp transmissionState:vector ETV
attr interpolationmode sample-hold
attr source transmissionStateChanged
attr title "tx state, vector"
vector 2 scenario.client[0].ppp[2].ppp transmissionState:vector ETV
attr interpolationmode sample-hold
attr source transmissionStateChanged
attr title "tx state, vector"
vector 3 scenario.client[0].ppp[3].ppp transmissionState:vector ETV
attr interpolationmode sample-hold
attr source transmissionStateChanged
attr title "tx state, vector"
vector 4 scenario.client[0].ppp[4].ppp transmissionState:vector ETV
attr interpolationmode sample-hold
attr source transmissionStateChanged
attr title "tx state, vector"
vector 5 scenario.client[0].ppp[5].ppp transmissionState:vector ETV
attr interpolationmode sample-hold
attr source transmissionStateChanged
attr title "tx state, vector"
vector 6 scenario.client[0].ppp[6].ppp transmissionState:vector ETV
attr interpolationmode sample-hold
attr source transmissionStateChanged
attr title "tx state, vector"
vector 7 scenario.client[0].ppp[7].ppp transmissionState:vector ETV
attr interpolationmode sample-hold
attr source transmissionStateChanged
attr title "tx state, vector"
vector 8 scenario.client[0].ppp[8].ppp transmissionState:vector ETV
attr interpolationmode sample-hold
attr source transmissionStateChanged
attr title "tx state, vector"
vector 9 scenario.client[1].ppp[0].ppp transmissionState:vector ETV
attr interpolationmode sample-hold
attr source transmissionStateChanged
attr title "tx state, vector"
vector 10 scenario.client[1].ppp[1].ppp transmissionState:vector ETV
attr interpolationmode sample-hold
attr source transmissionStateChanged
attr title "tx state, vector"
vector 11 scenario.client[1].ppp[2].ppp transmissionState:vector ETV
attr interpolationmode sample-hold
attr source transmissionStateChanged
attr title "tx state, vector"
vector 12 scenario.client[1].ppp[3].ppp transmissionState:vector ETV
attr interpolationmode sample-hold
attr source transmissionStateChanged
attr title "tx state, vector"
vector 13 scenario.client[1].ppp[4].ppp transmissionState:vector ETV
attr interpolationmode sample-hold
attr source transmissionStateChanged
attr title "tx state, vector"
vector 14 scenario.client[1].ppp[5].ppp transmissionState:vector ETV
attr interpolationmode sample-hold
attr source transmissionStateChanged
attr title "tx state, vector"
vector 15 scenario.client[1].ppp[6].ppp transmissionState:vector ETV
attr interpolationmode sample-hold
attr source transmissionStateChanged
attr title "tx state, vector"
vector 16 scenario.client[1].ppp[7].ppp transmissionState:vector ETV
attr interpolationmode sample-hold
attr source transmissionStateChanged
attr title "tx state, vector"
vector 17 scenario.client[1].ppp[8].ppp transmissionState:vector ETV
attr interpolationmode sample-hold
attr source transmissionStateChanged
attr title "tx state, vector"
vector 18 scenario.client[2].ppp[0].ppp transmissionState:vector ETV
attr interpolationmode sample-hold
attr source transmissionStateChanged
attr title "tx state, vector"
vector 19 scenario.client[2].ppp[1].ppp transmissionState:vector ETV
attr interpolationmode sample-hold
attr source transmissionStateChanged
attr title "tx state, vector"
vector 20 scenario.client[2].ppp[2].ppp transmissionState:vector ETV
attr interpolationmode sample-hold
attr source transmissionStateChanged
attr title "tx state, vector"
vector 21 scenario.client[2].ppp[3].ppp transmissionState:vector ETV
attr interpolationmode sample-hold
attr source transmissionStateChanged
attr title "tx state, vector"
vector 22 scenario.client[2].ppp[4].ppp transmissionState:vector ETV
attr interpolationmode sample-hold
attr source transmissionStateChanged
attr title "tx state, vector"
vector 23 scenario.client[2].ppp[5].ppp transmissionState:vector ETV
attr interpolationmode sample-hold
attr source transmissionStateChanged
attr title "tx state, vector"
vector 24 scenario.client[2].ppp[6].ppp transmissionState:vector ETV
attr interpolationmode sample-hold
attr source transmissionStateChanged
attr title "tx state, vector"
vector 25 scenario.client[2].ppp[7].ppp transmissionState:vector ETV
attr interpolationmode sample-hold
attr source transmissionStateChanged
attr title "tx state, vector"
vector 26 scenario.client[2].ppp[8].ppp transmissionState:vector ETV
attr interpolationmode sample-hold
attr source transmissionStateChanged
attr title "tx state, vector"
vector 27 scenario.client[3].ppp[0].ppp transmissionState:vector ETV
attr interpolationmode sample-hold
attr source transmissionStateChanged
attr title "tx state, vector"
vector 28 scenario.client[3].ppp[1].ppp transmissionState:vector ETV
attr interpolationmode sample-hold
attr source transmissionStateChanged
attr title "tx state, vector"
vector 29 scenario.client[3].ppp[2].ppp transmissionState:vector ETV
attr interpolationmode sample-hold
attr source transmissionStateChanged
attr title "tx state, vector"
vector 30 scenario.client[3].ppp[3].ppp transmissionState:vector ETV
attr interpolationmode sample-hold
attr source transmissionStateChanged
attr title "tx state, vector"
vector 31 scenario.client[3].ppp[4].ppp transmissionState:vector ETV
attr interpolationmode sample-hold
attr source transmissionStateChanged
attr title "tx state, vector"
vector 32 scenario.client[3].ppp[5].ppp transmissionState:vector ETV
attr interpolationmode sample-hold
attr source transmissionStateChanged
attr title "tx state, vector"
vector 33 scenario.client[3].ppp[6].ppp transmissionState:vector ETV
attr interpolationmode sample-hold
attr source transmissionStateChanged
attr title "tx state, vector"
vector 34 scenario.client[3].ppp[7].ppp transmissionState:vector ETV
attr interpolationmode sample-hold
attr source transmissionStateChanged
attr title "tx state, vector"
vector 35 scenario.client[3].ppp[8].ppp transmissionState:vector ETV
attr interpolationmode sample-hold
attr source transmissionStateChanged
attr title "tx state, vector"
vector 36 scenario.client[4].ppp[0].ppp transmissionState:vector ETV
attr interpolationmode sample-hold
attr source transmissionStateChanged
attr title "tx state, vector"
vector 37 scenario.client[4].ppp[1].ppp transmissionState:vector ETV
attr interpolationmode sample-hold
attr source transmissionStateChanged
attr title "tx state, vector"
vector 38 scenario.client[4].ppp[2].ppp transmissionState:vector ETV
attr interpolationmode sample-hold
attr source transmissionStateChanged
attr title "tx state, vector"
vector 39 scenario.client[4].ppp[3].ppp transmissionState:vector ETV
attr interpolationmode sample-hold
attr source transmissionStateChanged
attr title "tx state, vector"
vector 40 scenario.client[4].ppp[4].ppp transmissionState:vector ETV
attr interpolationmode sample-hold
attr source transmissionStateChanged
attr title "tx state, vector"
vector 41 scenario.client[4].ppp[5].ppp transmissionState:vector ETV
attr interpolationmode sample-hold
attr source transmissionStateChanged
attr title "tx state, vector"
vector 42 scenario.client[4].ppp[6].ppp transmissionState:vector ETV
attr interpolationmode sample-hold
attr source transmissionStateChanged
attr title "tx state, vector"
vector 43 scenario.client[4].ppp[7].ppp transmissionState:vector ETV
attr interpolationmode sample-hold
attr source transmissionStateChanged
attr title "tx state, vector"
vector 44 scenario.client[4].ppp[8].ppp transmissionState:vector ETV
attr interpolationmode sample-hold
attr source transmissionStateChanged
attr title "tx state, vector"
vector 45 scenario.client[5].ppp[0].ppp transmissionState:vector ETV
attr interpolationmode sample-hold
attr source transmissionStateChanged
attr title "tx state, vector"
vector 46 scenario.client[5].ppp[1].ppp transmissionState:vector ETV
attr interpolationmode sample-hold
attr source transmissionStateChanged
attr title "tx state, vector"
vector 47 scenario.client[5].ppp[2].ppp transmissionState:vector ETV
attr interpolationmode sample-hold
attr source transmissionStateChanged
attr title "tx state, vector"
vector 48 scenario.client[5].ppp[3].ppp transmissionState:vector ETV
attr interpolationmode sample-hold
attr source transmissionStateChanged
attr title "tx state, vector"
vector 49 scenario.client[5].ppp[4].ppp transmissionState:vector ETV
attr interpolationmode sample-hold
attr source transmissionStateChanged
attr title "tx state, vector"
vector 50 scenario.client[5].ppp[5].ppp transmissionState:vector ETV
attr interpolationmode sample-hold
attr source transmissionStateChanged
attr title "tx state, vector"
vector 51 scenario.client[5].ppp[6].ppp transmissionState:vector ETV
attr interpolationmode sample-hold
attr source transmissionStateChanged
attr title "tx state, vector"
vector 52 scenario.client[5].ppp[7].ppp transmissionState:vector ETV
attr interpolationmode sample-hold
attr source transmissionStateChanged
attr title "tx state, vector"
vector 53 scenario.client[5].ppp[8].ppp transmissionState:vector ETV
attr interpolationmode sample-hold
attr source transmissionStateChanged
attr title "tx state, vector"
vector 54 scenario.client[6].ppp[0].ppp transmissionState:vector ETV
attr interpolationmode sample-hold
attr source transmissionStateChanged
attr title "tx state, vector"
vector 55 scenario.client[6].ppp[1].ppp transmissionState:vector ETV
attr interpolationmode sample-hold
attr source transmissionStateChanged
attr title "tx state, vector"
vector 56 scenario.client[6].ppp[2].ppp transmissionState:vector ETV
attr interpolationmode sample-hold
attr source transmissionStateChanged
attr title "tx state, vector"
vector 57 scenario.client[6].ppp[3].ppp transmissionState:vector ETV
attr interpolationmode sample-hold
attr source transmissionStateChanged
attr title "tx state, vector"
vector 58 scenario.client[6].ppp[4].ppp transmissionState:vector ETV
attr interpolationmode sample-hold
attr source transmissionStateChanged
attr title "tx state, vector"
vector 59 scenario.client[6].ppp[5].ppp transmissionState:vector ETV
attr interpolationmode sample-hold
attr source transmissionStateChanged
attr title "tx state, vector"
vector 60 scenario.client[6].ppp[6].ppp transmissionState:vector ETV
attr interpolationmode sample-hold
attr source transmissionStateChanged
attr title "tx state, vector"
vector 61 scenario.client[6].ppp[7].ppp transmissionState:vector ETV
attr interpolationmode sample-hold
attr source transmissionStateChanged
attr title "tx state, vector"
vector 62 scenario.client[6].ppp[8].ppp transmissionState:vector ETV
attr interpolationmode sample-hold
attr source transmissionStateChanged
attr title "tx state, vector"
vector 63 scenario.client[7].ppp[0].ppp transmissionState:vector ETV
attr interpolationmode sample-hold
attr source transmissionStateChanged
attr title "tx state, vector"
vector 64 scenario.client[7].ppp[1].ppp transmissionState:vector ETV
attr interpolationmode sample-hold
attr source transmissionStateChanged
attr title "tx state, vector"
vector 65 scenario.client[7].ppp[2].ppp transmissionState:vector ETV
attr interpolationmode sample-hold
attr source transmissionStateChanged
attr title "tx state, vector"
vector 66 scenario.client[7].ppp[3].ppp transmissionState:vector ETV
attr interpolationmode sample-hold
attr source transmissionStateChanged
attr title "tx state, vector"
vector 67 scenario.client[7].ppp[4].ppp transmissionState:vector ETV
attr interpolationmode sample-hold
attr source transmissionStateChanged
attr title "tx state, vector"
vector 68 scenario.client[7].ppp[5].ppp transmissionState:vector ETV
attr interpolationmode sample-hold
attr source transmissionStateChanged
attr title "tx state, vector"
vector 69 scenario.client[7].ppp[6].ppp transmissionState:vector ETV
attr interpolationmode sample-hold
attr source transmissionStateChanged
attr title "tx state, vector"
vector 70 scenario.client[7].ppp[7].ppp transmissionState:vector ETV
attr interpolationmode sample-hold
attr source transmissionStateChanged
attr title "tx state, vector"
vector 71 scenario.client[7].ppp[8].ppp transmissionState:vector ETV
attr interpolationmode sample-hold
attr source transmissionStateChanged
attr title "tx state, vector"
vector 72 scenario.client[8].ppp[0].ppp transmissionState:vector ETV
attr interpolationmode sample-hold
attr source transmissionStateChanged
attr title "tx state, vector"
vector 73 scenario.client[8].ppp[1].ppp transmissionState:vector ETV
attr interpolationmode sample-hold
attr source transmissionStateChanged
attr title "tx state, vector"
vector 74 scenario.client[8].ppp[2].ppp transmissionState:vector ETV
attr interpolationmode sample-hold
attr source transmissionStateChanged
attr title "tx state, vector"
vector 75 scenario.client[8].ppp[3].ppp transmissionState:vector ETV
attr interpolationmode sample-hold
attr source transmissionStateChanged
attr title "tx state, vector"
vector 76 scenario.client[8].ppp[4].ppp transmissionState:vector ETV
attr interpolationmode sample-hold
attr source transmissionStateChanged
attr title "tx state, vector"
vector 77 scenario.client[8].ppp[5].ppp transmissionState:vector ETV
attr interpolationmode sample-hold
attr source transmissionStateChanged
attr title "tx state, vector"
vector 78 scenario.client[8].ppp[6].ppp transmissionState:vector ETV
attr interpolationmode sample-hold
attr source transmissionStateChanged
attr title "tx state, vector"
vector 79 scenario.client[8].ppp[7].ppp transmissionState:vector ETV
attr interpolationmode sample-hold
attr source transmissionStateChanged
attr title "tx state, vector"
vector 80 scenario.client[8].ppp[8].ppp transmissionState:vector ETV
attr interpolationmode sample-hold
attr source transmissionStateChanged
attr title "tx state, vector"
vector 81 scenario.client[9].ppp[0].ppp transmissionState:vector ETV
attr interpolationmode sample-hold
attr source transmissionStateChanged
attr title "tx state, vector"
vector 82 scenario.client[9].ppp[1].ppp transmissionState:vector ETV
attr interpolationmode sample-hold
attr source transmissionStateChanged
attr title "tx state, vector"
vector 83 scenario.client[9].ppp[2].ppp transmissionState:vector ETV
attr interpolationmode sample-hold
attr source transmissionStateChanged
attr title "tx state, vector"
vector 84 scenario.client[9].ppp[3].ppp transmissionState:vector ETV
attr interpolationmode sample-hold
attr source transmissionStateChanged
attr title "tx state, vector"
vector 85 scenario.client[9].ppp[4].ppp transmissionState:vector ETV
attr interpolationmode sample-hold
attr source transmissionStateChanged
attr title "tx state, vector"
vector 86 scenario.client[9].ppp[5].ppp transmissionState:vector ETV
attr interpolationmode sample-hold
attr source transmissionStateChanged
attr title "tx state, vector"
vector 87 scenario.client[9].ppp[6].ppp transmissionState:vector ETV
attr interpolationmode sample-hold
attr source transmissionStateChanged
attr title "tx state, vector"
vector 88 scenario.client[9].ppp[7].ppp transmissionState:vector ETV
attr interpolationmode sample-hold
attr source transmissionStateChanged
attr title "tx state, vector"
vector 89 scenario.client[9].ppp[8].ppp transmissionState:vector ETV
attr interpolationmode sample-hold
attr source transmissionStateChanged
attr title "tx state, vector"
vector 90 scenario.client[7].tcp.conn-100 tcpRcvQueueBytes:vector ETV
attr interpolationmode sample-hold
vector 91 scenario.client[7].tcp.conn-100 rcvAdv:vector ETV
attr interpolationmode sample-hold
vector 92 scenario.client[7].tcp.conn-100 rcvWnd:vector ETV
attr interpolationmode sample-hold
vector 93 scenario.client[7].tcp.conn-100 sndAck:vector ETV
attr interpolationmode sample-hold
vector 94 scenario.client[7].ppp[0].ppp rcvdPkFromHl:vector(packetBytes) ETV
attr interpolationmode none
attr source packetReceivedFromUpper
attr title "packets received from higher layer, vector(packetBytes)"
vector 95 scenario.client[7].ppp[0].ppp.queue packetPushed:vector(packetBytes) ETV
attr interpolationmode none
attr title "packet pushed, vector(packetBytes)"
vector 96 scenario.client[7].ppp[0].ppp.queue queueLength:vector ETV
attr interpolationmode sample-hold
attr source "count(packetPushed) - count(packetPopped) - count(packetRemoved) - count(packetDropped)"
attr title "queue length, vector"
vector 97 scenario.client[7].ppp[0].ppp.queue packetPopped:vector(packetBytes) ETV
attr interpolationmode none
attr title "packet popped, vector(packetBytes)"
vector 98 scenario.client[7].ppp[0].ppp.queue queueingTime:vector ETV
attr interpolationmode none
attr source queueingTime(packetPopped)
attr title "queueing times, vector"
attr unit s
vector 99 scenario.client[7].ppp[0].ppp txPk:vector(packetBytes) ETV
attr interpolationmode none
attr source packetSentToLower
attr title "packets transmitted, vector(packetBytes)"
vector 100 scenario.client[0].ppp[6].ppp rxPkOk:vector(packetBytes) ETV
attr interpolationmode none
attr source rxPkOk
attr title "packets received OK, vector(packetBytes)"
vector 101 scenario.client[0].ppp[6].ppp passedUpPk:vector(packetBytes) ETV
attr interpolationmode none
attr source packetSentToUpper
attr title "packets passed to higher layer, vector(packetBytes)"
vector 102 scenario.client[0].tcp.conn-0 rcvSeq:vector ETV
attr interpolationmode sample-hold
vector 103 scenario.client[0].tcp.conn-0 rcvAck:vector ETV
attr interpolationmode sample-hold
vector 104 scenario.client[0].tcp.conn-101 rcvAdv:vector ETV
attr interpolationmode sample-hold
vector 105 scenario.client[0].tcp.conn-101 sndWnd:vector ETV
attr interpolationmode sample-hold
vector 106 scenario.client[0].tcp.conn-101 tcpRcvQueueBytes:vector ETV
attr interpolationmode sample-hold
vector 107 scenario.client[0].tcp.conn-101 rcvWnd:vector ETV
attr interpolationmode sample-hold
vector 108 scenario.client[0].tcp.conn-101 sndAck:vector ETV
attr interpolationmode sample-hold
vector 109 scenario.client[0].ppp[6].ppp rcvdPkFromHl:vector(packetBytes) ETV
attr interpolationmode none
attr source packetReceivedFromUpper
attr title "packets received from higher layer, vector(packetBytes)"
vector 110 scenario.client[0].ppp[6].ppp.queue packetPushed:vector(packetBytes) ETV
attr interpolationmode none
attr title "packet pushed, vector(packetBytes)"
vector 111 scenario.client[0].ppp[6].ppp.queue queueLength:vector ETV
attr interpolationmode sample-hold
attr source "count(packetPushed) - count(packetPopped) - count(packetRemoved) - count(packetDropped)"
attr title "queue length, vector"
vector 112 scenario.client[0].ppp[6].ppp.queue packetPopped:vector(packetBytes) ETV
attr interpolationmode none
attr title "packet popped, vector(packetBytes)"
vector 113 scenario.client[0].ppp[6].ppp.queue queueingTime:vector ETV
attr interpolationmode none
attr source queueingTime(packetPopped)
attr title "queueing times, vector"
attr unit s
vector 114 scenario.client[0].ppp[6].ppp txPk:vector(packetBytes) ETV
attr interpolationmode none
attr source packetSentToLower
attr title "packets transmitted, vector(packetBytes)"
vector 115 scenario.client[7].ppp[0].ppp rxPkOk:vector(packetBytes) ETV
attr interpolationmode none
attr source rxPkOk
attr title "packets received OK, vector(packetBytes)"
vector 116 scenario.client[7].ppp[0].ppp passedUpPk:vector(packetBytes) ETV
attr interpolationmode none
attr source packetSentToUpper
attr title "packets passed to higher layer, vector(packetBytes)"
vector 117 scenario.client[7].tcp.conn-100 rcvSeq:vector ETV
attr interpolationmode sample-hold
vector 118 scenario.client[7].tcp.conn-100 rcvAck:vector ETV
attr interpolationmode sample-hold
vector 119 scenario.client[7].tcp.conn-100 sndWnd:vector ETV
attr interpolationmode sample-hold
vector 120 scenario.client[7].tcp.conn-100 unacked:vector ETV
attr interpolationmode sample-hold
vector 121 scenario.client[0].tcp.conn-101 rcvSeq:vector ETV
attr interpolationmode sample-hold
vector 122 scenario.client[0].tcp.conn-101 rcvAck:vector ETV
attr interpolationmode sample-hold
vector 123 scenario.client[0].tcp.conn-101 unacked:vector ETV
attr interpolationmode sample-hold
vector 124 scenario.client[0].tcp.conn-101 cwnd:vector ETV
attr interpolationmode sample-hold
vector 125 scenario.client[0].tcp.conn-101 ssthresh:vector ETV
attr interpolationmode sample-hold
vector 126 scenario.client[0].tcp.conn-101 dupAcks:vector ETV
attr interpolationmode sample-hold
vector 127 scenario.client[0].tcp.conn-102 tcpRcvQueueBytes:vector ETV
attr interpolationmode sample-hold
vector 128 scenario.client[0].tcp.conn-102 rcvAdv:vector ETV
attr interpolationmode sample-hold
vector 129 scenario.client[0].tcp.conn-102 rcvWnd:vector ETV
attr interpolationmode sample-hold
vector 130 scenario.client[0].tcp.conn-102 sndAck:vector ETV
attr interpolationmode sample-hold
vector 131 scenario.client[7].tcp.conn-100 rtt:vector ETV
attr interpolationmode sample-hold
vector 132 scenario.client[7].tcp.conn-100 srtt:vector ETV
attr interpolationmode sample-hold
vector 133 scenario.client[7].tcp.conn-100 rttvar:vector ETV
attr interpolationmode sample-hold
vector 134 scenario.client[7].tcp.conn-100 rto:vector ETV
attr interpolationmode sample-hold
vector 135 scenario.client[7].tcp.conn-100 cwnd:vector ETV
attr interpolationmode sample-hold
vector 136 scenario.client[7].tcp.conn-100 ssthresh:vector ETV
attr interpolationmode sample-hold
vector 137 scenario.client[7].tcp.conn-100 dupAcks:vector ETV
attr interpolationmode sample-hold
vector 138 scenario.client[7].tcp.conn-7 rcvSeq:vector ETV
attr interpolationmode sample-hold
vector 139 scenario.client[7].tcp.conn-7 rcvAck:vector ETV
attr interpolationmode sample-hold
vector 140 scenario.client[7].tcp.conn-103 rcvAdv:vector ETV
attr interpolationmode sample-hold
vector 141 scenario.client[7].tcp.conn-103 sndWnd:vector ETV
attr interpolationmode sample-hold
vector 142 scenario.client[7].tcp.conn-103 tcpRcvQueueBytes:vector ETV
attr interpolationmode sample-hold
vector 143 scenario.client[7].tcp.conn-103 rcvWnd:vector ETV
attr interpolationmode sample-hold
vector 144 scenario.client[7].tcp.conn-103 sndAck:vector ETV
attr interpolationmode sample-hold
vector 145 scenario.client[0].tcp.conn-102 rcvSeq:vector ETV
attr interpolationmode sample-hold
vector 146 scenario.client[0].tcp.conn-102 rcvAck:vector ETV
attr interpolationmode sample-hold
vector 147 scenario.client[0].tcp.conn-102 sndWnd:vector ETV
attr interpolationmode sample-hold
vector 148 scenario.client[0].tcp.conn-102 unacked:vector ETV
attr interpolationmode sample-hold
vector 149 scenario.client[7].tcp.conn-103 rcvSeq:vector ETV
attr interpolationmode sample-hold
vector 150 scenario.client[7].tcp.conn-103 rcvAck:vector ETV
attr interpolationmode sample-hold
vector 151 scenario.client[7].tcp.conn-103 unacked:vector ETV
attr interpolationmode sample-hold
vector 152 scenario.client[7].tcp.conn-103 cwnd:vector ETV
attr interpolationmode sample-hold
vector 153 scenario.client[7].tcp.conn-103 ssthresh:vector ETV
attr interpolationmode sample-hold
vector 154 scenario.client[7].tcp.conn-103 dupAcks:vector ETV
attr interpolationmode sample-hold
vector 155 scenario.client[0].tcp.conn-102 rtt:vector ETV
attr interpolationmode sample-hold
vector 156 scenario.client[0].tcp.conn-102 srtt:vector ETV
attr interpolationmode sample-hold
vector 157 scenario.client[0].tcp.conn-102 rttvar:vector ETV
attr interpolationmode sample-hold
vector 158 scenario.client[0].tcp.conn-102 rto:vector ETV
attr interpolationmode sample-hold
vector 159 scenario.client[0].tcp.conn-102 cwnd:vector ETV
attr interpolationmode sample-hold
vector 160 scenario.client[0].tcp.conn-102 ssthresh:vector ETV
attr interpolationmode sample-hold
vector 161 scenario.client[0].tcp.conn-102 dupAcks:vector ETV
attr interpolationmode sample-hold
vector 162 scenario.client[7].tcp.conn-104 tcpRcvQueueBytes:vector ETV
attr interpolationmode sample-hold
vector 163 scenario.client[7].tcp.conn-104 rcvAdv:vector ETV
attr interpolationmode sample-hold
vector 164 scenario.client[7].tcp.conn-104 rcvWnd:vector ETV
attr interpolationmode sample-hold
vector 165 scenario.client[7].tcp.conn-104 sndAck:vector ETV
attr interpolationmode sample-hold
vector 166 scenario.client[7].ppp[1].ppp rcvdPkFromHl:vector(packetBytes) ETV
attr interpolationmode none
attr source packetReceivedFromUpper
attr title "packets received from higher layer, vector(packetBytes)"
vector 167 scenario.client[7].ppp[1].ppp.queue packetPushed:vector(packetBytes) ETV
attr interpolationmode none
attr title "packet pushed, vector(packetBytes)"
vector 168 scenario.client[7].ppp[1].ppp.queue queueLength:vector ETV
attr interpolationmode sample-hold
attr source "count(packetPushed) - count(packetPopped) - count(packetRemoved) - count(packetDropped)"
attr title "queue length, vector"
vector 169 scenario.client[7].ppp[1].ppp.queue packetPopped:vector(packetBytes) ETV
attr interpolationmode none
attr title "packet popped, vector(packetBytes)"
vector 170 scenario.client[7].ppp[1].ppp.queue queueingTime:vector ETV
attr interpolationmode none
attr source queueingTime(packetPopped)
attr title "queueing times, vector"
attr unit s
vector 171 scenario.client[7].ppp[1].ppp txPk:vector(packetBytes) ETV
attr interpolationmode none
attr source packetSentToLower
attr title "packets transmitted, vector(packetBytes)"
vector 172 scenario.client[1].ppp[6].ppp rxPkOk:vector(packetBytes) ETV
attr interpolationmode none
attr source rxPkOk
attr title "packets received OK, vector(packetBytes)"
vector 173 scenario.client[1].ppp[6].ppp passedUpPk:vector(packetBytes) ETV
attr interpolationmode none
attr source packetSentToUpper
attr title "packets passed to higher layer, vector(packetBytes)"
vector 174 scenario.client[1].tcp.conn-1 rcvSeq:vector ETV
attr interpolationmode sample-hold
vector 175 scenario.client[1].tcp.conn-1 rcvAck:vector ETV
attr interpolationmode sample-hold
vector 176 scenario.client[1].tcp.conn-105 rcvAdv:vector ETV
attr interpolationmode sample-hold
vector 177 scenario.client[1].tcp.conn-105 sndWnd:vector ETV
attr interpolationmode sample-hold
vector 178 scenario.client[1].tcp.conn-105 tcpRcvQueueBytes:vector ETV
attr interpolationmode sample-hold
vector 179 scenario.client[1].tcp.conn-105 rcvWnd:vector ETV
attr interpolationmode sample-hold
vector 180 scenario.client[1].tcp.conn-105 sndAck:vector ETV
attr interpolationmode sample-hold
vector 181 scenario.client[1].ppp[6].ppp rcvdPkFromHl:vector(packetBytes) ETV
attr interpolationmode none
attr source packetReceivedFromUpper
attr title "packets received from higher layer, vector(packetBytes)"
vector 182 scenario.client[1].ppp[6].ppp.queue packetPushed:vector(packetBytes) ETV
attr interpolationmode none
attr title "packet pushed, vector(packetBytes)"
vector 183 scenario.client[1].ppp[6].ppp.queue queueLength:vector ETV
attr interpolationmode sample-hold
attr source "count(packetPushed) - count(packetPopped) - count(packetRemoved) - count(packetDropped)"
attr title "queue length, vector"
vector 184 scenario.client[1].ppp[6].ppp.queue packetPopped:vector(packetBytes) ETV
attr interpolationmode none
attr title "packet popped, vector(packetBytes)"
vector 185 scenario.client[1].ppp[6].ppp.queue queueingTime:vector ETV
attr interpolationmode none
attr source queueingTime(packetPopped)
attr title "queueing times, vector"
attr unit s
vector 186 scenario.client[1].ppp[6].ppp txPk:vector(packetBytes) ETV
attr interpolationmode none
attr source packetSentToLower
attr title "packets transmitted, vector(packetBytes)"
vector 187 scenario.client[7].ppp[1].ppp rxPkOk:vector(packetBytes) ETV
attr interpolationmode none
attr source rxPkOk
attr title "packets received OK, vector(packetBytes)"
vector 188 scenario.client[7].ppp[1].ppp passedUpPk:vector(packetBytes) ETV
attr interpolationmode none
attr source packetSentToUpper
attr title "packets passed to higher layer, vector(packetBytes)"
vector 189 scenario.client[7].tcp.conn-104 rcvSeq:vector ETV
attr interpolationmode sample-hold
vector 190 scenario.client[7].tcp.conn-104 rcvAck:vector ETV
attr interpolationmode sample-hold
vector 191 scenario.client[7].tcp.conn-104 sndWnd:vector ETV
attr interpolationmode sample-hold
vector 192 scenario.client[7].tcp.conn-104 unacked:vector ETV
attr interpolationmode sample-hold
vector 193 scenario.client[1].tcp.conn-105 rcvSeq:vector ETV
attr interpolationmode sample-hold
vector 194 scenario.client[1].tcp.conn-105 rcvAck:vector ETV
attr interpolationmode sample-hold
vector 195 scenario.client[1].tcp.conn-105 unacked:vector ETV
attr interpolationmode sample-hold
vector 196 scenario.client[1].tcp.conn-105 cwnd:vector ETV
attr interpolationmode sample-hold
vector 197 scenario.client[1].tcp.conn-105 ssthresh:vector ETV
attr interpolationmode sample-hold
vector 198 scenario.client[1].tcp.conn-105 dupAcks:vector ETV
attr interpolationmode sample-hold
vector 199 scenario.client[1].tcp.conn-106 tcpRcvQueueBytes:vector ETV
attr interpolationmode sample-hold
vector 200 scenario.client[1].tcp.conn-106 rcvAdv:vector ETV
attr interpolationmode sample-hold
vector 201 scenario.client[1].tcp.conn-106 rcvWnd:vector ETV
attr interpolationmode sample-hold
vector 202 scenario.client[1].tcp.conn-106 sndAck:vector ETV
attr interpolationmode sample-hold
vector 203 scenario.client[7].tcp.conn-104 rtt:vector ETV
attr interpolationmode sample-hold
vector 204 scenario.client[7].tcp.conn-104 srtt:vector ETV
attr interpolationmode sample-hold
vector 205 scenario.client[7].tcp.conn-104 rttvar:vector ETV
attr interpolationmode sample-hold
vector 206 scenario.client[7].tcp.conn-104 rto:vector ETV
attr interpolationmode sample-hold
vector 207 scenario.client[7].tcp.conn-104 cwnd:vector ETV
attr interpolationmode sample-hold
vector 208 scenario.client[7].tcp.conn-104 ssthresh:vector ETV
attr interpolationmode sample-hold
vector 209 scenario.client[7].tcp.conn-104 dupAcks:vector ETV
attr interpolationmode sample-hold
vector 210 scenario.client[7].tcp.conn-107 rcvAdv:vector ETV
attr interpolationmode sample-hold
vector 211 scenario.client[7].tcp.conn-107 sndWnd:vector ETV
attr interpolationmode sample-hold
vector 212 scenario.client[7].tcp.conn-107 tcpRcvQueueBytes:vector ETV
attr interpolationmode sample-hold
vector 213 scenario.client[7].tcp.conn-107 rcvWnd:vector ETV
attr interpolationmode sample-hold
vector 214 scenario.client[7].tcp.conn-107 sndAck:vector ETV
attr interpolationmode sample-hold
vector 215 scenario.client[1].tcp.conn-106 rcvSeq:vector ETV
attr interpolationmode sample-hold
vector 216 scenario.client[1].tcp.conn-106 rcvAck:vector ETV
attr interpolationmode sample-hold
vector 217 scenario.client[1].tcp.conn-106 sndWnd:vector ETV
attr interpolationmode sample-hold
vector 218 scenario.client[1].tcp.conn-106 unacked:vector ETV
attr interpolationmode sample-hold
vector 219 scenario.client[7].tcp.conn-107 rcvSeq:vector ETV
attr interpolationmode sample-hold
vector 220 scenario.client[7].tcp.conn-107 rcvAck:vector ETV
attr interpolationmode sample-hold
vector 221 scenario.client[7].tcp.conn-107 unacked:vector ETV
attr interpolationmode sample-hold
vector 222 scenario.client[7].tcp.conn-107 cwnd:vector ETV
attr interpolationmode sample-hold
vector 223 scenario.client[7].tcp.conn-107 ssthresh:vector ETV
attr interpolationmode sample-hold
vector 224 scenario.client[7].tcp.conn-107 dupAcks:vector ETV
attr interpolationmode sample-hold
vector 225 scenario.client[1].tcp.conn-106 rtt:vector ETV
attr interpolationmode sample-hold
vector 226 scenario.client[1].tcp.conn-106 srtt:vector ETV
attr interpolationmode sample-hold
vector 227 scenario.client[1].tcp.conn-106 rttvar:vector ETV
attr interpolationmode sample-hold
vector 228 scenario.client[1].tcp.conn-106 rto:vector ETV
attr interpolationmode sample-hold
vector 229 scenario.client[1].tcp.conn-106 cwnd:vector ETV
attr interpolationmode sample-hold
vector 230 scenario.client[1].tcp.conn-106 ssthresh:vector ETV
attr interpolationmode sample-hold
vector 231 scenario.client[1].tcp.conn-106 dupAcks:vector ETV
attr interpolationmode sample-hold
vector 232 scenario.client[7].tcp.conn-108 tcpRcvQueueBytes:vector ETV
attr interpolationmode sample-hold
vector 233 scenario.client[7].tcp.conn-108 rcvAdv:vector ETV
attr interpolationmode sample-hold
vector 234 scenario.client[7].tcp.conn-108 rcvWnd:vector ETV
attr interpolationmode sample-hold
vector 235 scenario.client[7].tcp.conn-108 sndAck:vector ETV
attr interpolationmode sample-hold
vector 236 scenario.client[7].ppp[2].ppp rcvdPkFromHl:vector(packetBytes) ETV
attr interpolationmode none
attr source packetReceivedFromUpper
attr title "packets received from higher layer, vector(packetBytes)"
vector 237 scenario.client[7].ppp[2].ppp.queue packetPushed:vector(packetBytes) ETV
attr interpolationmode none
attr title "packet pushed, vector(packetBytes)"
vector 238 scenario.client[7].ppp[2].ppp.queue queueLength:vector ETV
attr interpolationmode sample-hold
attr source "count(packetPushed) - count(packetPopped) - count(packetRemoved) - count(packetDropped)"
attr title "queue length, vector"
vector 239 scenario.client[7].ppp[2].ppp.queue packetPopped:vector(packetBytes) ETV
attr interpolationmode none
attr title "packet popped, vector(packetBytes)"
vector 240 scenario.client[7].ppp[2].ppp.queue queueingTime:vector ETV
attr interpolationmode none
attr source queueingTime(packetPopped)
attr title "queueing times, vector"
attr unit s
vector 241 scenario.client[7].ppp[2].ppp txPk:vector(packetBytes) ETV
attr interpolationmode none
attr source packetSentToLower
attr title "packets transmitted, vector(packetBytes)"
vector 242 scenario.client[2].ppp[6].ppp rxPkOk:vector(packetBytes) ETV
attr interpolationmode none
attr source rxPkOk
attr title "packets received OK, vector(packetBytes)"
vector 243 scenario.client[2].ppp[6].ppp passedUpPk:vector(packetBytes) ETV
attr interpolationmode none
attr source packetSentToUpper
attr title "packets passed to higher layer, vector(packetBytes)"
vector 244 scenario.client[2].tcp.conn-2 rcvSeq:vector ETV
attr interpolationmode sample-hold
vector 245 scenario.client[2].tcp.conn-2 rcvAck:vector ETV
attr interpolationmode sample-hold
vector 246 scenario.client[2].tcp.conn-109 rcvAdv:vector ETV
attr interpolationmode sample-hold
vector 247 scenario.client[2].tcp.conn-109 sndWnd:vector ETV
attr interpolationmode sample-hold
vector 248 scenario.client[2].tcp.conn-109 tcpRcvQueueBytes:vector ETV
attr interpolationmode sample-hold
vector 249 scenario.client[2].tcp.conn-109 rcvWnd:vector ETV
attr interpolationmode sample-hold
vector 250 scenario.client[2].tcp.conn-109 sndAck:vector ETV
attr interpolationmode sample-hold
vector 251 scenario.client[2].ppp[6].ppp rcvdPkFromHl:vector(packetBytes) ETV
attr interpolationmode none
attr source packetReceivedFromUpper
attr title "packets received from higher layer, vector(packetBytes)"
vector 252 scenario.client[2].ppp[6].ppp.queue packetPushed:vector(packetBytes) ETV
attr interpolationmode none
attr title "packet pushed, vector(packetBytes)"
vector 253 scenario.client[2].ppp[6].ppp.queue queueLength:vector ETV
attr interpolationmode sample-hold
attr source "count(packetPushed) - count(packetPopped) - count(packetRemoved) - count(packetDropped)"
attr title "queue length, vector"
vector 254 scenario.client[2].ppp[6].ppp.queue packetPopped:vector(packetBytes) ETV
attr interpolationmode none
attr title "packet popped, vector(packetBytes)"
vector 255 scenario.client[2].ppp[6].ppp.queue queueingTime:vector ETV
attr interpolationmode none
attr source queueingTime(packetPopped)
attr title "queueing times, vector"
attr unit s
vector 256 scenario.client[2].ppp[6].ppp txPk:vector(packetBytes) ETV
attr interpolationmode none
attr source packetSentToLower
attr title "packets transmitted, vector(packetBytes)"
vector 257 scenario.client[7].ppp[2].ppp rxPkOk:vector(packetBytes) ETV
attr interpolationmode none
attr source rxPkOk
attr title "packets received OK, vector(packetBytes)"
vector 258 scenario.client[7].ppp[2].ppp passedUpPk:vector(packetBytes) ETV
attr interpolationmode none
attr source packetSentToUpper
attr title "packets passed to higher layer, vector(packetBytes)"
vector 259 scenario.client[7].tcp.conn-108 rcvSeq:vector ETV
attr interpolationmode sample-hold
vector 260 scenario.client[7].tcp.conn-108 rcvAck:vector ETV
attr interpolationmode sample-hold
vector 261 scenario.client[7].tcp.conn-108 sndWnd:vector ETV
attr interpolationmode sample-hold
vector 262 scenario.client[7].tcp.conn-108 unacked:vector ETV
attr interpolationmode sample-hold
vector 263 scenario.client[2].tcp.conn-109 rcvSeq:vector ETV
attr interpolationmode sample-hold
vector 264 scenario.client[2].tcp.conn-109 rcvAck:vector ETV
attr interpolationmode sample-hold
vector 265 scenario.client[2].tcp.conn-109 unacked:vector ETV
attr interpolationmode sample-hold
vector 266 scenario.client[2].tcp.conn-109 cwnd:vector ETV
attr interpolationmode sample-hold
vector 267 scenario.client[2].tcp.conn-109 ssthresh:vector ETV
attr interpolationmode sample-hold
vector 268 scenario.client[2].tcp.conn-109 dupAcks:vector ETV
attr interpolationmode sample-hold
vector 269 scenario.client[2].tcp.conn-110 tcpRcvQueueBytes:vector ETV
attr interpolationmode sample-hold
vector 270 scenario.client[2].tcp.conn-110 rcvAdv:vector ETV
attr interpolationmode sample-hold
vector 271 scenario.client[2].tcp.conn-110 rcvWnd:vector ETV
attr interpolationmode sample-hold
vector 272 scenario.client[2].tcp.conn-110 sndAck:vector ETV
attr interpolationmode sample-hold
vector 273 scenario.client[7].tcp.conn-108 rtt:vector ETV
attr interpolationmode sample-hold
vector 274 scenario.client[7].tcp.conn-108 srtt:vector ETV
attr interpolationmode sample-hold
vector 275 scenario.client[7].tcp.conn-108 rttvar:vector ETV
attr interpolationmode sample-hold
vector 276 scenario.client[7].tcp.conn-108 rto:vector ETV
attr interpolationmode sample-hold
vector 277 scenario.client[7].tcp.conn-108 cwnd:vector ETV
attr interpolationmode sample-hold
vector 278 scenario.client[7].tcp.conn-108 ssthresh:vector ETV
attr interpolationmode sample-hold
vector 279 scenario.client[7].tcp.conn-108 dupAcks:vector ETV
attr interpolationmode sample-hold
vector 280 scenario.client[7].tcp.conn-111 rcvAdv:vector ETV
attr interpolationmode sample-hold
vector 281 scenario.client[7].tcp.conn-111 sndWnd:vector ETV
attr interpolationmode sample-hold
vector 282 scenario.client[7].tcp.conn-111 tcpRcvQueueBytes:vector ETV
attr interpolationmode sample-hold
vector 283 scenario.client[7].tcp.conn-111 rcvWnd:vector ETV
attr interpolationmode sample-hold
vector 284 scenario.client[7].tcp.conn-111 sndAck:vector ETV
attr interpolationmode sample-hold
vector 285 scenario.client[2].tcp.conn-110 rcvSeq:vector ETV
attr interpolationmode sample-hold
vector 286 scenario.client[2].tcp.conn-110 rcvAck:vector ETV
attr interpolationmode sample-hold
vector 287 scenario.client[2].tcp.conn-110 sndWnd:vector ETV
attr interpolationmode sample-hold
vector 288 scenario.client[2].tcp.conn-110 unacked:vector ETV
attr interpolationmode sample-hold
vector 289 scenario.client[7].tcp.conn-111 rcvSeq:vector ETV
attr interpolationmode sample-hold
vector 290 scenario.client[7].tcp.conn-111 rcvAck:vector ETV
attr interpolationmode sample-hold
vector 291 scenario.client[7].tcp.conn-111 unacked:vector ETV
attr interpolationmode sample-hold
vector 292 scenario.client[7].tcp.conn-111 cwnd:vector ETV
attr interpolationmode sample-hold
vector 293 scenario.client[7].tcp.conn-111 ssthresh:vector ETV
attr interpolationmode sample-hold
vector 294 scenario.client[7].tcp.conn-111 dupAcks:vector ETV
attr interpolationmode sample-hold
vector 295 scenario.client[2].tcp.conn-110 rtt:vector ETV
attr interpolationmode sample-hold
vector 296 scenario.client[2].tcp.conn-110 srtt:vector ETV
attr interpolationmode sample-hold
vector 297 scenario.client[2].tcp.conn-110 rttvar:vector ETV
attr interpolationmode sample-hold
vector 298 scenario.client[2].tcp.conn-110 rto:vector ETV
attr interpolationmode sample-hold
vector 299 scenario.client[2].tcp.conn-110 cwnd:vector ETV
attr interpolationmode sample-hold
vector 300 scenario.client[2].tcp.conn-110 ssthresh:vector ETV
attr interpolationmode sample-hold
vector 301 scenario.client[2].tcp.conn-110 dupAcks:vector ETV
attr interpolationmode sample-hold
vector 302 scenario.client[5].tcp.conn-112 tcpRcvQueueBytes:vector ETV
attr interpolationmode sample-hold
vector 303 scenario.client[5].tcp.conn-112 rcvAdv:vector ETV
attr interpolationmode sample-hold
vector 304 scenario.client[5].tcp.conn-112 rcvWnd:vector ETV
attr interpolationmode sample-hold
vector 305 scenario.client[5].tcp.conn-112 sndAck:vector ETV
attr interpolationmode sample-hold
vector 306 scenario.client[5].ppp[0].ppp rcvdPkFromHl:vector(packetBytes) ETV
attr interpolationmode none
attr source packetReceivedFromUpper
attr title "packets received from higher layer, vector(packetBytes)"
vector 307 scenario.client[5].ppp[0].ppp.queue packetPushed:vector(packetBytes) ETV
attr interpolationmode none
attr title "packet pushed, vector(packetBytes)"
vector 308 scenario.client[5].ppp[0].ppp.queue queueLength:vector ETV
attr interpolationmode sample-hold
attr source "count(packetPushed) - count(packetPopped) - count(packetRemoved) - count(packetDropped)"
attr title "queue length, vector"
vector 309 scenario.client[5].ppp[0].ppp.queue packetPopped:vector(packetBytes) ETV
attr interpolationmode none
attr title "packet popped, vector(packetBytes)"
vector 310 scenario.client[5].ppp[0].ppp.queue queueingTime:vector ETV
attr interpolationmode none
attr source queueingTime(packetPopped)
attr title "queueing times, vector"
attr unit s
vector 311 scenario.client[5].ppp[0].ppp txPk:vector(packetBytes) ETV
attr interpolationmode none
attr source packetSentToLower
attr title "packets transmitted, vector(packetBytes)"
vector 312 scenario.client[0].ppp[4].ppp rxPkOk:vector(packetBytes) ETV
attr interpolationmode none
attr source rxPkOk
attr title "packets received OK, vector(packetBytes)"
vector 313 scenario.client[0].ppp[4].ppp passedUpPk:vector(packetBytes) ETV
attr interpolationmode none
attr source packetSentToUpper
attr title "packets passed to higher layer, vector(packetBytes)"
vector 314 scenario.client[0].tcp.conn-113 rcvAdv:vector ETV
attr interpolationmode sample-hold
vector 315 scenario.client[0].tcp.conn-113 sndWnd:vector ETV
attr interpolationmode sample-hold
vector 316 scenario.client[0].tcp.conn-113 tcpRcvQueueBytes:vector ETV
attr interpolationmode sample-hold
vector 317 scenario.client[0].tcp.conn-113 rcvWnd:vector ETV
attr interpolationmode sample-hold
vector 318 scenario.client[0].tcp.conn-113 sndAck:vector ETV
attr interpolationmode sample-hold
vector 319 scenario.client[0].ppp[4].ppp rcvdPkFromHl:vector(packetBytes) ETV
attr interpolationmode none
attr source packetReceivedFromUpper
attr title "packets received from higher layer, vector(packetBytes)"
vector 320 scenario.client[0].ppp[4].ppp.queue packetPushed:vector(packetBytes) ETV
attr interpolationmode none
attr title "packet pushed, vector(packetBytes)"
vector 321 scenario.client[0].ppp[4].ppp.queue queueLength:vector ETV
attr interpolationmode sample-hold
attr source "count(packetPushed) - count(packetPopped) - count(packetRemoved) - count(packetDropped)"
attr title "queue length, vector"
vector 322 scenario.client[0].ppp[4].ppp.queue packetPopped:vector(packetBytes) ETV
attr interpolationmode none
attr title "packet popped, vector(packetBytes)"
vector 323 scenario.client[0].ppp[4].ppp.queue queueingTime:vector ETV
attr interpolationmode none
attr source queueingTime(packetPopped)
attr title "queueing times, vector"
attr unit s
vector 324 scenario.client[0].ppp[4].ppp txPk:vector(packetBytes) ETV
attr interpolationmode none
attr source packetSentToLower
attr title "packets transmitted, vector(packetBytes)"
vector 325 scenario.client[5].ppp[0].ppp rxPkOk:vector(packetBytes) ETV
attr interpolationmode none
attr source rxPkOk
attr title "packets received OK, vector(packetBytes)"
vector 326 scenario.client[5].ppp[0].ppp passedUpPk:vector(packetBytes) ETV
attr interpolationmode none
attr source packetSentToUpper
attr title "packets passed to higher layer, vector(packetBytes)"
vector 327 scenario.client[5].tcp.conn-112 rcvSeq:vector ETV
attr interpolationmode sample-hold
vector 328 scenario.client[5].tcp.conn-112 rcvAck:vector ETV
attr interpolationmode sample-hold
vector 329 scenario.client[5].tcp.conn-112 sndWnd:vector ETV
attr interpolationmode sample-hold
vector 330 scenario.client[5].tcp.conn-112 unacked:vector ETV
attr interpolationmode sample-hold
vector 331 scenario.client[0].tcp.conn-113 rcvSeq:vector ETV
attr interpolationmode sample-hold
vector 332 scenario.client[0].tcp.conn-113 rcvAck:vector ETV
attr interpolationmode sample-hold
vector 333 scenario.client[0].tcp.conn-113 unacked:vector ETV
attr interpolationmode sample-hold
vector 334 scenario.client[0].tcp.conn-113 cwnd:vector ETV
attr interpolationmode sample-hold
vector 335 scenario.client[0].tcp.conn-113 ssthresh:vector ETV
attr interpolationmode sample-hold
vector 336 scenario.client[0].tcp.conn-113 dupAcks:vector ETV
attr interpolationmode sample-hold
vector 337 scenario.client[5].tcp.conn-112 rtt:vector ETV
attr interpolationmode sample-hold
vector 338 scenario.client[5].tcp.conn-112 srtt:vector ETV
attr interpolationmode sample-hold
vector 339 scenario.client[5].tcp.conn-112 rttvar:vector ETV
attr interpolationmode sample-hold
vector 340 scenario.client[5].tcp.conn-112 rto:vector ETV
attr interpolationmode sample-hold
vector 341 scenario.client[5].tcp.conn-112 cwnd:vector ETV
attr interpolationmode sample-hold
vector 342 scenario.client[5].tcp.conn-112 ssthresh:vector ETV
attr interpolationmode sample-hold
vector 343 scenario.client[5].tcp.conn-112 dupAcks:vector ETV
attr interpolationmode sample-hold
vector 344 scenario.client[7].tcp.conn-114 tcpRcvQueueBytes:vector ETV
attr interpolationmode sample-hold
vector 345 scenario.client[7].tcp.conn-114 rcvAdv:vector ETV
attr interpolationmode sample-hold
vector 346 scenario.client[7].tcp.conn-114 rcvWnd:vector ETV
attr interpolationmode sample-hold
vector 347 scenario.client[7].tcp.conn-114 sndAck:vector ETV
attr interpolationmode sample-hold
vector 348 scenario.client[7].ppp[3].ppp rcvdPkFromHl:vector(packetBytes) ETV
attr interpolationmode none
attr source packetReceivedFromUpper
attr title "packets received from higher layer, vector(packetBytes)"
vector 349 scenario.client[7].ppp[3].ppp.queue packetPushed:vector(packetBytes) ETV
attr interpolationmode none
attr title "packet pushed, vector(packetBytes)"
vector 350 scenario.client[7].ppp[3].ppp.queue queueLength:vector ETV
attr interpolationmode sample-hold
attr source "count(packetPushed) - count(packetPopped) - count(packetRemoved) - count(packetDropped)"
attr title "queue length, vector"
vector 351 scenario.client[7].ppp[3].ppp.queue packetPopped:vector(packetBytes) ETV
attr interpolationmode none
attr title "packet popped, vector(packetBytes)"
vector 352 scenario.client[7].ppp[3].ppp.queue queueingTime:vector ETV
attr interpolationmode none
attr source queueingTime(packetPopped)
attr title "queueing times, vector"
attr unit s
vector 353 scenario.client[7].ppp[3].ppp txPk:vector(packetBytes) ETV
attr interpolationmode none
attr source packetSentToLower
attr title "packets transmitted, vector(packetBytes)"
vector 354 scenario.client[3].ppp[6].ppp rxPkOk:vector(packetBytes) ETV
attr interpolationmode none
attr source rxPkOk
attr title "packets received OK, vector(packetBytes)"
vector 355 scenario.client[3].ppp[6].ppp passedUpPk:vector(packetBytes) ETV
attr interpolationmode none
attr source packetSentToUpper
attr title "packets passed to higher layer, vector(packetBytes)"
vector 356 scenario.client[3].tcp.conn-3 rcvSeq:vector ETV
attr interpolationmode sample-hold
vector 357 scenario.client[3].tcp.conn-3 rcvAck:vector ETV
attr interpolationmode sample-hold
vector 358 scenario.client[3].tcp.conn-115 rcvAdv:vector ETV
attr interpolationmode sample-hold
vector 359 scenario.client[3].tcp.conn-115 sndWnd:vector ETV
attr interpolationmode sample-hold
vector 360 scenario.client[3].tcp.conn-115 tcpRcvQueueBytes:vector ETV
attr interpolationmode sample-hold
vector 361 scenario.client[3].tcp.conn-115 rcvWnd:vector ETV
attr interpolationmode sample-hold
vector 362 scenario.client[3].tcp.conn-115 sndAck:vector ETV
attr interpolationmode sample-hold
vector 363 scenario.client[3].ppp[6].ppp rcvdPkFromHl:vector(packetBytes) ETV
attr interpolationmode none
attr source packetReceivedFromUpper
attr title "packets received from higher layer, vector(packetBytes)"
vector 364 scenario.client[3].ppp[6].ppp.queue packetPushed:vector(packetBytes) ETV
attr interpolationmode none
attr title "packet pushed, vector(packetBytes)"
vector 365 scenario.client[3].ppp[6].ppp.queue queueLength:vector ETV
attr interpolationmode sample-hold
attr source "count(packetPushed) - count(packetPopped) - count(packetRemoved) - count(packetDropped)"
attr title "queue length, vector"
vector 366 scenario.client[3].ppp[6].ppp.queue packetPopped:vector(packetBytes) ETV
attr interpolationmode none
attr title "packet popped, vector(packetBytes)"
vector 367 scenario.client[3].ppp[6].ppp.queue queueingTime:vector ETV
attr interpolationmode none
attr source queueingTime(packetPopped)
attr title "queueing times, vector"
attr unit s
vector 368 scenario.client[3].ppp[6].ppp txPk:vector(packetBytes) ETV
attr interpolationmode none
attr source packetSentToLower
attr title "packets transmitted, vector(packetBytes)"
vector 369 scenario.client[7].ppp[3].ppp rxPkOk:vector(packetBytes) ETV
attr interpolationmode none
attr source rxPkOk
attr title "packets received OK, vector(packetBytes)"
vector 370 scenario.client[7].ppp[3].ppp passedUpPk:vector(packetBytes) ETV
attr interpolationmode none
attr source packetSentToUpper
attr title "packets passed to higher layer, vector(packetBytes)"
vector 371 scenario.client[7].tcp.conn-114 rcvSeq:vector ETV
attr interpolationmode sample-hold
vector 372 scenario.client[7].tcp.conn-114 rcvAck:vector ETV
attr interpolationmode sample-hold
vector 373 scenario.client[7].tcp.conn-114 sndWnd:vector ETV
attr interpolationmode sample-hold
vector 374 scenario.client[7].tcp.conn-114 unacked:vector ETV
attr interpolationmode sample-hold
vector 375 scenario.client[3].tcp.conn-115 rcvSeq:vector ETV
attr interpolationmode sample-hold
vector 376 scenario.client[3].tcp.conn-115 rcvAck:vector ETV
attr interpolationmode sample-hold
vector 377 scenario.client[3].tcp.conn-115 unacked:vector ETV
attr interpolationmode sample-hold
vector 378 scenario.client[3].tcp.conn-115 cwnd:vector ETV
attr interpolationmode sample-hold
vector 379 scenario.client[3].tcp.conn-115 ssthresh:vector ETV
attr interpolationmode sample-hold
vector 380 scenario.client[3].tcp.conn-115 dupAcks:vector ETV
attr interpolationmode sample-hold
vector 381 scenario.client[3].tcp.conn-116 tcpRcvQueueBytes:vector ETV
attr interpolationmode sample-hold
vector 382 scenario.client[3].tcp.conn-116 rcvAdv:vector ETV
attr interpolationmode sample-hold
vector 383 scenario.client[3].tcp.conn-116 rcvWnd:vector ETV
attr interpolationmode sample-hold
vector 384 scenario.client[3].tcp.conn-116 sndAck:vector ETV
attr interpolationmode sample-hold
vector 385 scenario.client[7].tcp.conn-114 rtt:vector ETV
attr interpolationmode sample-hold
vector 386 scenario.client[7].tcp.conn-114 srtt:vector ETV
attr interpolationmode sample-hold
vector 387 scenario.client[7].tcp.conn-114 rttvar:vector ETV
attr interpolationmode sample-hold
vector 388 scenario.client[7].tcp.conn-114 rto:vector ETV
attr interpolationmode sample-hold
vector 389 scenario.client[7].tcp.conn-114 cwnd:vector ETV
attr interpolationmode sample-hold
vector 390 scenario.client[7].tcp.conn-114 ssthresh:vector ETV
attr interpolationmode sample-hold
vector 391 scenario.client[7].tcp.conn-114 dupAcks:vector ETV
attr interpolationmode sample-hold
vector 392 scenario.client[7].tcp.conn-117 rcvAdv:vector ETV
attr interpolationmode sample-hold
vector 393 scenario.client[7].tcp.conn-117 sndWnd:vector ETV
attr interpolationmode sample-hold
vector 394 scenario.client[7].tcp.conn-117 tcpRcvQueueBytes:vector ETV
attr interpolationmode sample-hold
vector 395 scenario.client[7].tcp.conn-117 rcvWnd:vector ETV
attr interpolationmode sample-hold
vector 396 scenario.client[7].tcp.conn-117 sndAck:vector ETV
attr interpolationmode sample-hold
vector 397 scenario.client[3].tcp.conn-116 rcvSeq:vector ETV
attr interpolationmode sample-hold
vector 398 scenario.client[3].tcp.conn-116 rcvAck:vector ETV
attr interpolationmode sample-hold
vector 399 scenario.client[3].tcp.conn-116 sndWnd:vector ETV
attr interpolationmode sample-hold
vector 400 scenario.client[3].tcp.conn-116 unacked:vector ETV
attr interpolationmode sample-hold
vector 401 scenario.client[7].tcp.conn-117 rcvSeq:vector ETV
attr interpolationmode sample-hold
vector 402 scenario.client[7].tcp.conn-117 rcvAck:vector ETV
attr interpolationmode sample-hold
vector 403 scenario.client[7].tcp.conn-117 unacked:vector ETV
attr interpolationmode sample-hold
vector 404 scenario.client[7].tcp.conn-117 cwnd:vector ETV
attr interpolationmode sample-hold
vector 405 scenario.client[7].tcp.conn-117 ssthresh:vector ETV
attr interpolationmode sample-hold
vector 406 scenario.client[7].tcp.conn-117 dupAcks:vector ETV
attr interpolationmode sample-hold
vector 407 scenario.client[3].tcp.conn-116 rtt:vector ETV
attr interpolationmode sample-hold
vector 408 scenario.client[3].tcp.conn-116 srtt:vector ETV
attr interpolationmode sample-hold
vector 409 scenario.client[3].tcp.conn-116 rttvar:vector ETV
attr interpolationmode sample-hold
vector 410 scenario.client[3].tcp.conn-116 rto:vector ETV
attr interpolationmode sample-hold
vector 411 scenario.client[3].tcp.conn-116 cwnd:vector ETV
attr interpolationmode sample-hold
vector 412 scenario.client[3].tcp.conn-116 ssthresh:vector ETV
attr interpolationmode sample-hold
vector 413 scenario.client[3].tcp.conn-116 dupAcks:vector ETV
attr interpolationmode sample-hold
vector 414 scenario.client[4].tcp.conn-118 tcpRcvQueueBytes:vector ETV
attr interpolationmode sample-hold
vector 415 scenario.client[4].tcp.conn-118 rcvAdv:vector ETV
attr interpolationmode sample-hold
vector 416 scenario.client[4].tcp.conn-118 rcvWnd:vector ETV
attr interpolationmode sample-hold
vector 417 scenario.client[4].tcp.conn-118 sndAck:vector ETV
attr interpolationmode sample-hold
vector 418 scenario.client[4].ppp[0].ppp rcvdPkFromHl:vector(packetBytes) ETV
attr interpolationmode none
attr source packetReceivedFromUpper
attr title "packets received from higher layer, vector(packetBytes)"
vector 419 scenario.client[4].ppp[0].ppp.queue packetPushed:vector(packetBytes) ETV
attr interpolationmode none
attr title "packet pushed, vector(packetBytes)"
vector 420 scenario.client[4].ppp[0].ppp.queue queueLength:vector ETV
attr interpolationmode sample-hold
attr source "count(packetPushed) - count(packetPopped) - count(packetRemoved) - count(packetDropped)"
attr title "queue length, vector"
vector 421 scenario.client[4].ppp[0].ppp.queue packetPopped:vector(packetBytes) ETV
attr interpolationmode none
attr title "packet popped, vector(packetBytes)"
vector 422 scenario.client[4].ppp[0].ppp.queue queueingTime:vector ETV
attr interpolationmode none
attr source queueingTime(packetPopped)
attr title "queueing times, vector"
attr unit s
vector 423 scenario.client[4].ppp[0].ppp txPk:vector(packetBytes) ETV
attr interpolationmode none
attr source packetSentToLower
attr title "packets transmitted, vector(packetBytes)"
vector 424 scenario.client[0].ppp[3].ppp rxPkOk:vector(packetBytes) ETV
attr interpolationmode none
attr source rxPkOk
attr title "packets received OK, vector(packetBytes)"
vector 425 scenario.client[0].ppp[3].ppp passedUpPk:vector(packetBytes) ETV
attr interpolationmode none
attr source packetSentToUpper
attr title "packets passed to higher layer, vector(packetBytes)"
vector 426 scenario.client[0].tcp.conn-119 rcvAdv:vector ETV
attr interpolationmode sample-hold
vector 427 scenario.client[0].tcp.conn-119 sndWnd:vector ETV
attr interpolationmode sample-hold
vector 428 scenario.client[0].tcp.conn-119 tcpRcvQueueBytes:vector ETV
attr interpolationmode sample-hold
vector 429 scenario.client[0].tcp.conn-119 rcvWnd:vector ETV
attr interpolationmode sample-hold
vector 430 scenario.client[0].tcp.conn-119 sndAck:vector ETV
attr interpolationmode sample-hold
vector 431 scenario.client[0].ppp[3].ppp rcvdPkFromHl:vector(packetBytes) ETV
attr interpolationmode none
attr source packetReceivedFromUpper
attr title "packets received from higher layer, vector(packetBytes)"
vector 432 scenario.client[0].ppp[3].ppp.queue packetPushed:vector(packetBytes) ETV
attr interpolationmode none
attr title "packet pushed, vector(packetBytes)"
vector 433 scenario.client[0].ppp[3].ppp.queue queueLength:vector ETV
attr interpolationmode sample-hold
attr source "count(packetPushed) - count(packetPopped) - count(packetRemoved) - count(packetDropped)"
attr title "queue length, vector"
vector 434 scenario.client[0].ppp[3].ppp.queue packetPopped:vector(packetBytes) ETV
attr interpolationmode none
attr title "packet popped, vector(packetBytes)"
vector 435 scenario.client[0].ppp[3].ppp.queue queueingTime:vector ETV
attr interpolationmode none
attr source queueingTime(packetPopped)
attr title "queueing times, vector"
attr unit s
vector 436 scenario.client[0].ppp[3].ppp txPk:vector(packetBytes) ETV
attr interpolationmode none
attr source packetSentToLower
attr title "packets transmitted, vector(packetBytes)"
vector 437 scenario.client[4].ppp[0].ppp rxPkOk:vector(packetBytes) ETV
attr interpolationmode none
attr source rxPkOk
attr title "packets received OK, vector(packetBytes)"
vector 438 scenario.client[4].ppp[0].ppp passedUpPk:vector(packetBytes) ETV
attr interpolationmode none
attr source packetSentToUpper
attr title "packets passed to higher layer, vector(packetBytes)"
vector 439 scenario.client[4].tcp.conn-118 rcvSeq:vector ETV
attr interpolationmode sample-hold
vector 440 scenario.client[4].tcp.conn-118 rcvAck:vector ETV
attr interpolationmode sample-hold
vector 441 scenario.client[4].tcp.conn-118 sndWnd:vector ETV
attr interpolationmode sample-hold
vector 442 scenario.client[4].tcp.conn-118 unacked:vector ETV
attr interpolationmode sample-hold
vector 443 scenario.client[0].tcp.conn-119 rcvSeq:vector ETV
attr interpolationmode sample-hold
vector 444 scenario.client[0].tcp.conn-119 rcvAck:vector ETV
attr interpolationmode sample-hold
vector 445 scenario.client[0].tcp.conn-119 unacked:vector ETV
attr interpolationmode sample-hold
vector 446 scenario.client[0].tcp.conn-119 cwnd:vector ETV
attr interpolationmode sample-hold
vector 447 scenario.client[0].tcp.conn-119 ssthresh:vector ETV
attr interpolationmode sample-hold
vector 448 scenario.client[0].tcp.conn-119 dupAcks:vector ETV
attr interpolationmode sample-hold
vector 449 scenario.client[4].tcp.conn-118 rtt:vector ETV
attr interpolationmode sample-hold
vector 450 scenario.client[4].tcp.conn-118 srtt:vector ETV
attr interpolationmode sample-hold
vector 451 scenario.client[4].tcp.conn-118 rttvar:vector ETV
attr interpolationmode sample-hold
vector 452 scenario.client[4].tcp.conn-118 rto:vector ETV
attr interpolationmode sample-hold
vector 453 scenario.client[4].tcp.conn-118 cwnd:vector ETV
attr interpolationmode sample-hold
vector 454 scenario.client[4].tcp.conn-118 ssthresh:vector ETV
attr interpolationmode sample-hold
vector 455 scenario.client[4].tcp.conn-118 dupAcks:vector ETV
attr interpolationmode sample-hold
vector 456 scenario.client[5].tcp.conn-120 tcpRcvQueueBytes:vector ETV
attr interpolationmode sample-hold
vector 457 scenario.client[5].tcp.conn-120 rcvAdv:vector ETV
attr interpolationmode sample-hold
vector 458 scenario.client[5].tcp.conn-120 rcvWnd:vector ETV
attr interpolationmode sample-hold
vector 459 scenario.client[5].tcp.conn-120 sndAck:vector ETV
attr interpolationmode sample-hold
vector 460 scenario.client[5].ppp[1].ppp rcvdPkFromHl:vector(packetBytes) ETV
attr interpolationmode none
attr source packetReceivedFromUpper
attr title "packets received from higher layer, vector(packetBytes)"
vector 461 scenario.client[5].ppp[1].ppp.queue packetPushed:vector(packetBytes) ETV
attr interpolationmode none
attr title "packet pushed, vector(packetBytes)"
vector 462 scenario.client[5].ppp[1].ppp.queue queueLength:vector ETV
attr interpolationmode sample-hold
attr source "count(packetPushed) - count(packetPopped) - count(packetRemoved) - count(packetDropped)"
attr title "queue length, vector"
vector 463 scenario.client[5].ppp[1].ppp.queue packetPopped:vector(packetBytes) ETV
attr interpolationmode none
attr title "packet popped, vector(packetBytes)"
vector 464 scenario.client[5].ppp[1].ppp.queue queueingTime:vector ETV
attr interpolationmode none
attr source queueingTime(packetPopped)
attr title "queueing times, vector"
attr unit s
vector 465 scenario.client[5].ppp[1].ppp txPk:vector(packetBytes) ETV
attr interpolationmode none
attr source packetSentToLower
attr title "packets transmitted, vector(packetBytes)"
vector 466 scenario.client[1].ppp[4].ppp rxPkOk:vector(packetBytes) ETV
attr interpolationmode none
attr source rxPkOk
attr title "packets received OK, vector(packetBytes)"
vector 467 scenario.client[1].ppp[4].ppp passedUpPk:vector(packetBytes) ETV
attr interpolationmode none
attr source packetSentToUpper
attr title "packets passed to higher layer, vector(packetBytes)"
vector 468 scenario.client[1].tcp.conn-121 rcvAdv:vector ETV
attr interpolationmode sample-hold
vector 469 scenario.client[1].tcp.conn-121 sndWnd:vector ETV
attr interpolationmode sample-hold
vector 470 scenario.client[1].tcp.conn-121 tcpRcvQueueBytes:vector ETV
attr interpolationmode sample-hold
vector 471 scenario.client[1].tcp.conn-121 rcvWnd:vector ETV
attr interpolationmode sample-hold
vector 472 scenario.client[1].tcp.conn-121 sndAck:vector ETV
attr interpolationmode sample-hold
vector 473 scenario.client[1].ppp[4].ppp rcvdPkFromHl:vector(packetBytes) ETV
attr interpolationmode none
attr source packetReceivedFromUpper
attr title "packets received from higher layer, vector(packetBytes)"
vector 474 scenario.client[1].ppp[4].ppp.queue packetPushed:vector(packetBytes) ETV
attr interpolationmode none
attr title "packet pushed, vector(packetBytes)"
vector 475 scenario.client[1].ppp[4].ppp.queue queueLength:vector ETV
attr interpolationmode sample-hold
attr source "count(packetPushed) - count(packetPopped) - count(packetRemoved) - count(packetDropped)"
attr title "queue length, vector"
vector 476 scenario.client[1].ppp[4].ppp.queue packetPopped:vector(packetBytes) ETV
attr interpolationmode none
attr title "packet popped, vector(packetBytes)"
vector 477 scenario.client[1].ppp[4].ppp.queue queueingTime:vector ETV
attr interpolationmode none
attr source queueingTime(packetPopped)
attr title "queueing times, vector"
attr unit s
vector 478 scenario.client[1].ppp[4].ppp txPk:vector(packetBytes) ETV
attr interpolationmode none
attr source packetSentToLower
attr title "packets transmitted, vector(packetBytes)"
vector 479 scenario.client[5].ppp[1].ppp rxPkOk:vector(packetBytes) ETV
attr interpolationmode none
attr source rxPkOk
attr title "packets received OK, vector(packetBytes)"
vector 480 scenario.client[5].ppp[1].ppp passedUpPk:vector(packetBytes) ETV
attr interpolationmode none
attr source packetSentToUpper
attr title "packets passed to higher layer, vector(packetBytes)"
vector 481 scenario.client[5].tcp.conn-120 rcvSeq:vector ETV
attr interpolationmode sample-hold
vector 482 scenario.client[5].tcp.conn-120 rcvAck:vector ETV
attr interpolationmode sample-hold
vector 483 scenario.client[5].tcp.conn-120 sndWnd:vector ETV
attr interpolationmode sample-hold
vector 484 scenario.client[5].tcp.conn-120 unacked:vector ETV
attr interpolationmode sample-hold
vector 485 scenario.client[1].tcp.conn-121 rcvSeq:vector ETV
attr interpolationmode sample-hold
vector 486 scenario.client[1].tcp.conn-121 rcvAck:vector ETV
attr interpolationmode sample-hold
vector 487 scenario.client[1].tcp.conn-121 unacked:vector ETV
attr interpolationmode sample-hold
vector 488 scenario.client[1].tcp.conn-121 cwnd:vector ETV
attr interpolationmode sample-hold
vector 489 scenario.client[1].tcp.conn-121 ssthresh:vector ETV
attr interpolationmode sample-hold
vector 490 scenario.client[1].tcp.conn-121 dupAcks:vector ETV
attr interpolationmode sample-hold
vector 491 scenario.client[5].tcp.conn-120 rtt:vector ETV
attr interpolationmode sample-hold
vector 492 scenario.client[5].tcp.conn-120 srtt:vector ETV
attr interpolationmode sample-hold
vector 493 scenario.client[5].tcp.conn-120 rttvar:vector ETV
attr interpolationmode sample-hold
vector 494 scenario.client[5].tcp.conn-120 rto:vector ETV
attr interpolationmode sample-hold
vector 495 scenario.client[5].tcp.conn-120 cwnd:vector ETV
attr interpolationmode sample-hold
vector 496 scenario.client[5].tcp.conn-120 ssthresh:vector ETV
attr interpolationmode sample-hold
vector 497 scenario.client[5].tcp.conn-120 dupAcks:vector ETV
attr interpolationmode sample-hold
vector 498 scenario.client[7].tcp.conn-122 tcpRcvQueueBytes:vector ETV
attr interpolationmode sample-hold
vector 499 scenario.client[7].tcp.conn-122 rcvAdv:vector ETV
attr interpolationmode sample-hold
vector 500 scenario.client[7].tcp.conn-122 rcvWnd:vector ETV
attr interpolationmode sample-hold
vector 501 scenario.client[7].tcp.conn-122 sndAck:vector ETV
attr interpolationmode sample-hold
vector 502 scenario.client[7].ppp[4].ppp rcvdPkFromHl:vector(packetBytes) ETV
attr interpolationmode none
attr source packetReceivedFromUpper
attr title "packets received from higher layer, vector(packetBytes)"
vector 503 scenario.client[7].ppp[4].ppp.queue packetPushed:vector(packetBytes) ETV
attr interpolationmode none
attr title "packet pushed, vector(packetBytes)"
vector 504 scenario.client[7].ppp[4].ppp.queue queueLength:vector ETV
attr interpolationmode sample-hold
attr source "count(packetPushed) - count(packetPopped) - count(packetRemoved) - count(packetDropped)"
attr title "queue length, vector"
vector 505 scenario.client[7].ppp[4].ppp.queue packetPopped:vector(packetBytes) ETV
attr interpolationmode none
attr title "packet popped, vector(packetBytes)"
vector 506 scenario.client[7].ppp[4].ppp.queue queueingTime:vector ETV
attr interpolationmode none
attr source queueingTime(packetPopped)
attr title "queueing times, vector"
attr unit s
vector 507 scenario.client[7].ppp[4].ppp txPk:vector(packetBytes) ETV
attr interpolationmode none
attr source packetSentToLower
attr title "packets transmitted, vector(packetBytes)"
vector 508 scenario.client[4].ppp[6].ppp rxPkOk:vector(packetBytes) ETV
attr interpolationmode none
attr source rxPkOk
attr title "packets received OK, vector(packetBytes)"
vector 509 scenario.client[4].ppp[6].ppp passedUpPk:vector(packetBytes) ETV
attr interpolationmode none
attr source packetSentToUpper
attr title "packets passed to higher layer, vector(packetBytes)"
vector 510 scenario.client[4].tcp.conn-4 rcvSeq:vector ETV
attr interpolationmode sample-hold
vector 511 scenario.client[4].tcp.conn-4 rcvAck:vector ETV
attr interpolationmode sample-hold
vector 512 scenario.client[4].tcp.conn-123 rcvAdv:vector ETV
attr interpolationmode sample-hold
vector 513 scenario.client[4].tcp.conn-123 sndWnd:vector ETV
attr interpolationmode sample-hold
vector 514 scenario.client[4].tcp.conn-123 tcpRcvQueueBytes:vector ETV
attr interpolationmode sample-hold
vector 515 scenario.client[4].tcp.conn-123 rcvWnd:vector ETV
attr interpolationmode sample-hold
vector 516 scenario.client[4].tcp.conn-123 sndAck:vector ETV
attr interpolationmode sample-hold
vector 517 scenario.client[4].ppp[6].ppp rcvdPkFromHl:vector(packetBytes) ETV
attr interpolationmode none
attr source packetReceivedFromUpper
attr title "packets received from higher layer, vector(packetBytes)"
vector 518 scenario.client[4].ppp[6].ppp.queue packetPushed:vector(packetBytes) ETV
attr interpolationmode none
attr title "packet pushed, vector(packetBytes)"
vector 519 scenario.client[4].ppp[6].ppp.queue queueLength:vector ETV
attr interpolationmode sample-hold
attr source "count(packetPushed) - count(packetPopped) - count(packetRemoved) - count(packetDropped)"
attr title "queue length, vector"
vector 520 scenario.client[4].ppp[6].ppp.queue packetPopped:vector(packetBytes) ETV
attr interpolationmode none
attr title "packet popped, vector(packetBytes)"
vector 521 scenario.client[4].ppp[6].ppp.queue queueingTime:vector ETV
attr interpolationmode none
attr source queueingTime(packetPopped)
attr title "queueing times, vector"
attr unit s
vector 522 scenario.client[4].ppp[6].ppp txPk:vector(packetBytes) ETV
attr interpolationmode none
attr source packetSentToLower
attr title "packets transmitted, vector(packetBytes)"
vector 523 scenario.client[7].ppp[4].ppp rxPkOk:vector(packetBytes) ETV
attr interpolationmode none
attr source rxPkOk
attr title "packets received OK, vector(packetBytes)"
vector 524 scenario.client[7].ppp[4].ppp passedUpPk:vector(packetBytes) ETV
attr interpolationmode none
attr source packetSentToUpper
attr title "packets passed to higher layer, vector(packetBytes)"
vector 525 scenario.client[7].tcp.conn-122 rcvSeq:vector ETV
attr interpolationmode sample-hold
vector 526 scenario.client[7].tcp.conn-122 rcvAck:vector ETV
attr interpolationmode sample-hold
vector 527 scenario.client[7].tcp.conn-122 sndWnd:vector ETV
attr interpolationmode sample-hold
vector 528 scenario.client[7].tcp.conn-122 unacked:vector ETV
attr interpolationmode sample-hold
vector 529 scenario.client[4].tcp.conn-123 rcvSeq:vector ETV
attr interpolationmode sample-hold
vector 530 scenario.client[4].tcp.conn-123 rcvAck:vector ETV
attr interpolationmode sample-hold
vector 531 scenario.client[4].tcp.conn-123 unacked:vector ETV
attr interpolationmode sample-hold
vector 532 scenario.client[4].tcp.conn-123 cwnd:vector ETV
attr interpolationmode sample-hold
vector 533 scenario.client[4].tcp.conn-123 ssthresh:vector ETV
attr interpolationmode sample-hold
vector 534 scenario.client[4].tcp.conn-123 dupAcks:vector ETV
attr interpolationmode sample-hold
vector 535 scenario.client[7].tcp.conn-122 rtt:vector ETV
attr interpolationmode sample-hold
vector 536 scenario.client[7].tcp.conn-122 srtt:vector ETV
attr interpolationmode sample-hold
vector 537 scenario.client[7].tcp.conn-122 rttvar:vector ETV
attr interpolationmode sample-hold
vector 538 scenario.client[7].tcp.conn-122 rto:vector ETV
attr interpolationmode sample-hold
vector 539 scenario.client[7].tcp.conn-122 cwnd:vector ETV
attr interpolationmode sample-hold
vector 540 scenario.client[7].tcp.conn-122 ssthresh:vector ETV
attr interpolationmode sample-hold
vector 541 scenario.client[7].tcp.conn-122 dupAcks:vector ETV
attr interpolationmode sample-hold
vector 542 scenario.client[0].tcp.conn-124 tcpRcvQueueBytes:vector ETV
attr interpolationmode sample-hold
vector 543 scenario.client[0].tcp.conn-124 rcvAdv:vector ETV
attr interpolationmode sample-hold
vector 544 scenario.client[0].tcp.conn-124 rcvWnd:vector ETV
attr interpolationmode sample-hold
vector 545 scenario.client[0].tcp.conn-124 sndAck:vector ETV
attr interpolationmode sample-hold
vector 546 scenario.client[5].tcp.conn-5 rcvSeq:vector ETV
attr interpolationmode sample-hold
vector 547 scenario.client[5].tcp.conn-5 rcvAck:vector ETV
attr interpolationmode sample-hold
vector 548 scenario.client[5].tcp.conn-125 rcvAdv:vector ETV
attr interpolationmode sample-hold
vector 549 scenario.client[5].tcp.conn-125 sndWnd:vector ETV
attr interpolationmode sample-hold
vector 550 scenario.client[5].tcp.conn-125 tcpRcvQueueBytes:vector ETV
attr interpolationmode sample-hold
vector 551 scenario.client[5].tcp.conn-125 rcvWnd:vector ETV
attr interpolationmode sample-hold
vector 552 scenario.client[5].tcp.conn-125 sndAck:vector ETV
attr interpolationmode sample-hold
vector 553 scenario.client[0].tcp.conn-124 rcvSeq:vector ETV
attr interpolationmode sample-hold
vector 554 scenario.client[0].tcp.conn-124 rcvAck:vector ETV
attr interpolationmode sample-hold
vector 555 scenario.client[0].tcp.conn-124 sndWnd:vector ETV
attr interpolationmode sample-hold
vector 556 scenario.client[0].tcp.conn-124 unacked:vector ETV
attr interpolationmode sample-hold
vector 557 scenario.client[5].tcp.conn-125 rcvSeq:vector ETV
attr interpolationmode sample-hold
vector 558 scenario.client[5].tcp.conn-125 rcvAck:vector ETV
attr interpolationmode sample-hold
vector 559 scenario.client[5].tcp.conn-125 unacked:vector ETV
attr interpolationmode sample-hold
vector 560 scenario.client[5].tcp.conn-125 cwnd:vector ETV
attr interpolationmode sample-hold
vector 561 scenario.client[5].tcp.conn-125 ssthresh:vector ETV
attr interpolationmode sample-hold
vector 562 scenario.client[5].tcp.conn-125 dupAcks:vector ETV
attr interpolationmode sample-hold
vector 563 scenario.client[0].tcp.conn-124 rtt:vector ETV
attr interpolationmode sample-hold
vector 564 scenario.client[0].tcp.conn-124 srtt:vector ETV
attr interpolationmode sample-hold
vector 565 scenario.client[0].tcp.conn-124 rttvar:vector ETV
attr interpolationmode sample-hold
vector 566 scenario.client[0].tcp.conn-124 rto:vector ETV
attr interpolationmode sample-hold
vector 567 scenario.client[0].tcp.conn-124 cwnd:vector ETV
attr interpolationmode sample-hold
vector 568 scenario.client[0].tcp.conn-124 ssthresh:vector ETV
attr interpolationmode sample-hold
vector 569 scenario.client[0].tcp.conn-124 dupAcks:vector ETV
attr interpolationmode sample-hold
vector 570 scenario.client[8].tcp.conn-126 tcpRcvQueueBytes:vector ETV
attr interpolationmode sample-hold
vector 571 scenario.client[8].tcp.conn-126 rcvAdv:vector ETV
attr interpolationmode sample-hold
vector 572 scenario.client[8].tcp.conn-126 rcvWnd:vector ETV
attr interpolationmode sample-hold
vector 573 scenario.client[8].tcp.conn-126 sndAck:vector ETV
attr interpolationmode sample-hold
vector 574 scenario.client[8].ppp[0].ppp rcvdPkFromHl:vector(packetBytes) ETV
attr interpolationmode none
attr source packetReceivedFromUpper
attr title "packets received from higher layer, vector(packetBytes)"
vector 575 scenario.client[8].ppp[0].ppp.queue packetPushed:vector(packetBytes) ETV
attr interpolationmode none
attr title "packet pushed, vector(packetBytes)"
vector 576 scenario.client[8].ppp[0].ppp.queue queueLength:vector ETV
attr interpolationmode sample-hold
attr source "count(packetPushed) - count(packetPopped) - count(packetRemoved) - count(packetDropped)"
attr title "queue length, vector"
vector 577 scenario.client[8].ppp[0].ppp.queue packetPopped:vector(packetBytes) ETV
attr interpolationmode none
attr title "packet popped, vector(packetBytes)"
vector 578 scenario.client[8].ppp[0].ppp.queue queueingTime:vector ETV
attr interpolationmode none
attr source queueingTime(packetPopped)
attr title "queueing times, vector"
attr unit s
vector 579 scenario.client[8].ppp[0].ppp txPk:vector(packetBytes) ETV
attr interpolationmode none
attr source packetSentToLower
attr title "packets transmitted, vector(packetBytes)"
vector 580 scenario.client[0].ppp[7].ppp rxPkOk:vector(packetBytes) ETV
attr interpolationmode none
attr source rxPkOk
attr title "packets received OK, vector(packetBytes)"
vector 581 scenario.client[0].ppp[7].ppp passedUpPk:vector(packetBytes) ETV
attr interpolationmode none
attr source packetSentToUpper
attr title "packets passed to higher layer, vector(packetBytes)"
vector 582 scenario.client[0].tcp.conn-127 rcvAdv:vector ETV
attr interpolationmode sample-hold
vector 583 scenario.client[0].tcp.conn-127 sndWnd:vector ETV
attr interpolationmode sample-hold
vector 584 scenario.client[0].tcp.conn-127 tcpRcvQueueBytes:vector ETV
attr interpolationmode sample-hold
vector 585 scenario.client[0].tcp.conn-127 rcvWnd:vector ETV
attr interpolationmode sample-hold
vector 586 scenario.client[0].tcp.conn-127 sndAck:vector ETV
attr interpolationmode sample-hold
vector 587 scenario.client[0].ppp[7].ppp rcvdPkFromHl:vector(packetBytes) ETV
attr interpolationmode none
attr source packetReceivedFromUpper
attr title "packets received from higher layer, vector(packetBytes)"
vector 588 scenario.client[0].ppp[7].ppp.queue packetPushed:vector(packetBytes) ETV
attr interpolationmode none
attr title "packet pushed, vector(packetBytes)"
vector 589 scenario.client[0].ppp[7].ppp.queue queueLength:vector ETV
attr interpolationmode sample-hold
attr source "count(packetPushed) - count(packetPopped) - count(packetRemoved) - count(packetDropped)"
attr title "queue length, vector"
vector 590 scenario.client[0].ppp[7].ppp.queue packetPopped:vector(packetBytes) ETV
attr interpolationmode none
attr title "packet popped, vector(packetBytes)"
vector 591 scenario.client[0].ppp[7].ppp.queue queueingTime:vector ETV
attr interpolationmode none
attr source queueingTime(packetPopped)
attr title "queueing times, vector"
attr unit s
vector 592 scenario.client[0].ppp[7].ppp txPk:vector(packetBytes) ETV
attr interpolationmode none
attr source packetSentToLower
attr title "packets transmitted, vector(packetBytes)"
vector 593 scenario.client[8].ppp[0].ppp rxPkOk:vector(packetBytes) ETV
attr interpolationmode none
attr source rxPkOk
attr title "packets received OK, vector(packetBytes)"
vector 594 scenario.client[8].ppp[0].ppp passedUpPk:vector(packetBytes) ETV
attr interpolationmode none
attr source packetSentToUpper
attr title "packets passed to higher layer, vector(packetBytes)"
vector 595 scenario.client[8].tcp.conn-126 rcvSeq:vector ETV
attr interpolationmode sample-hold
vector 596 scenario.client[8].tcp.conn-126 rcvAck:vector ETV
attr interpolationmode sample-hold
vector 597 scenario.client[8].tcp.conn-126 sndWnd:vector ETV
attr interpolationmode sample-hold
vector 598 scenario.client[8].tcp.conn-126 unacked:vector ETV
attr interpolationmode sample-hold
vector 599 scenario.client[0].tcp.conn-127 rcvSeq:vector ETV
attr interpolationmode sample-hold
vector 600 scenario.client[0].tcp.conn-127 rcvAck:vector ETV
attr interpolationmode sample-hold
vector 601 scenario.client[0].tcp.conn-127 unacked:vector ETV
attr interpolationmode sample-hold
vector 602 scenario.client[0].tcp.conn-127 cwnd:vector ETV
attr interpolationmode sample-hold
vector 603 scenario.client[0].tcp.conn-127 ssthresh:vector ETV
attr interpolationmode sample-hold
vector 604 scenario.client[0].tcp.conn-127 dupAcks:vector ETV
attr interpolationmode sample-hold
vector 605 scenario.client[8].tcp.conn-126 rtt:vector ETV
attr interpolationmode sample-hold
vector 606 scenario.client[8].tcp.conn-126 srtt:vector ETV
attr interpolationmode sample-hold
vector 607 scenario.client[8].tcp.conn-126 rttvar:vector ETV
[...]
2966	13113213 637 3481 64207 7.251935630117 183.200725422514 15 0.00022 0.001547667806 0.016326325377 2.0269492485035e-005
2967	13113850 642 3481 64207 7.251935630117 183.200725422514 15 0.101698889994 0.65647 4.550489112477 1.8090596343939
2968	13114492 550 3481 64207 7.251935630117 183.200725422514 15 1 2.6261 20.809128719955 33.006128767194
2969	13115042 506 3481 64207 7.251935630117 183.200725422514 15 1072 1608 17152 20110720
2970	13115548 596 3481 64207 7.251935630117 183.200725422514 15 4294967295 4294967295 64424509425 2.7670116097679e+020
2971	13116144 461 3481 64207 7.251935630117 183.200725422514 15 0 0 0 0
2972	13116605 2331 3589 132755 7.631907101657 831.846266150574 75 0 0 0 0
2973	13118936 2812 3589 132755 7.631907101657 831.846266150574 76 7504 1915708 143685604 2.7524534190482e+014
2974	13121748 2556 3589 132755 7.631907101657 831.846266150574 75 7504 7504 562800 4223251200
2975	13124304 2775 3589 132755 7.631907101657 831.846266150574 75 0 1908204 141207096 2.6945194541558e+014
2976	13127079 2815 3596 132765 7.632815101657 831.847526150574 76 1915481 1915556 145579403 2.788600339557e+014
2977	13129894 62 3596 3609 7.632815101657 7.634607101657 2 7504 7504 15008 112620032
2978	13129956 4634 3596 132765 7.632815101657 831.847526150574 149 0 1 1 1
2979	13134590 2556 3596 132765 7.632815101657 831.847526150574 75 7503 7504 562799 4223236193
2980	13137146 2781 3596 132765 7.632815101657 831.847526150574 75 1907977 1908052 143101123 2.7303908542011e+014
2981	13139927 2781 3602 132772 7.633723101657 831.848402150574 75 1908203 1908204 143115299 2.7309318410479e+014
2982	13142708 2781 3602 132772 7.633723101657 831.848402150574 75 1907977 1908052 143101123 2.7303908542011e+014
2983	13145489 2556 3602 132772 7.633723101657 831.848402150574 75 7503 7504 562799 4223236193
2984	13148045 4606 3602 132772 7.633723101657 831.848402150574 148 0 2 75 77
2985	13152651 2747 3609 132765 7.634607101657 831.847526150574 74 1907977 1908051 141193071 2.6939842298541e+014
2986	13155398 2747 3609 132765 7.634607101657 831.847526150574 74 1908204 1908204 141207096 2.6945194541558e+014
2987	13158145 28 3609 3609 7.634607101657 7.634607101657 1 0 0 0 0
2988	13158173 31 3609 3609 7.634607101657 7.634607101657 1 1072 1072 1072 1149184
2989	13158204 37 3609 3609 7.634607101657 7.634607101657 1 4294967295 4294967295 4294967295 1.844674406512e+019
2990	13158241 2303 3609 132765 7.634607101657 831.847526150574 74 0 0 0 0
2991	13160544 2777 3619 132772 7.635483101657 831.848402150574 74 0.00176 0.002136 0.141152 0.000271732608
2992	13163321 3249 3619 132772 7.635483101657 831.848402150574 74 0.00022 0.001955340696 0.127578536807 0.00022928382472052
2993	13166570 3242 3619 132772 7.635483101657 831.848402150574 74 0.000232696564 0.65647 5.271911176587 1.8432634127747
2994	13169812 2392 3619 132772 7.635483101657 831.848402150574 74 1 2.6261 79.810991741401 92.01140927749
2995	13172204 2525 3619 132772 7.635483101657 831.848402150574 74 1072 1608 89512 112332736
2996	13174729 2969 3619 132772 7.635483101657 831.848402150574 74 4294967295 4294967295 317827579830 1.3650590608189e+021
2997	13177698 2303 3619 132772 7.635483101657 831.848402150574 74 0 0 0 0
2998	13180001 489 3816 64314 8.366805017244 183.655781731605 16 0 0 0 0
2999	13180490 616 3816 64314 8.366805017244 183.655781731605 17 7504 2099433 33598432 70521959053840
3000	13181106 537 3816 64314 8.366805017244 183.655781731605 16 7504 7504 120064 900960256
3001	13181643 579 3816 64314 8.366805017244 183.655781731605 16 0 2091929 31378935 65642504115615
3002	13182222 619 3823 64320 8.367713017244 183.656665731605 17 2099206 2099222 35686634 74913873309282
3003	13182841 62 3823 3847 8.367713017244 8.369505017244 2 7504 7504 15008 112620032
3004	13182903 950 3823 64320 8.367713017244 183.656665731605 31 0 1 1 1
3005	13183853 537 3823 64320 8.367713017244 183.656665731605 16 7503 7504 120063 900945249
3006	13184390 585 3823 64320 8.367713017244 183.656665731605 16 2091702 2091718 33467365 70004032503083
3007	13184975 585 3833 64327 8.368621017244 183.657541731605 16 2091928 2091929 33470863 70018666872799
3008	13185560 585 3833 64327 8.368621017244 183.657541731605 16 2091702 2091718 33467365 70004032503083
3009	13186145 537 3833 64327 8.368621017244 183.657541731605 16 7503 7504 120063 900945249
3010	13186682 922 3833 64327 8.368621017244 183.657541731605 30 0 2 16 18
3011	13187604 551 3847 64320 8.369505017244 183.656665731605 15 2091702 2091717 31375647 65628748311559
3012	13188155 551 3847 64320 8.369505017244 183.656665731605 15 2091929 2091929 31378935 65642504115615
3013	13188706 28 3847 3847 8.369505017244 8.369505017244 1 0 0 0 0
3014	13188734 31 3847 3847 8.369505017244 8.369505017244 1 1072 1072 1072 1149184
3015	13188765 37 3847 3847 8.369505017244 8.369505017244 1 4294967295 4294967295 4294967295 1.844674406512e+019
3016	13188802 461 3847 64320 8.369505017244 183.656665731605 15 0 0 0 0
3017	13189263 554 3861 64327 8.370381017244 183.657541731605 15 0.00176 0.002136 0.02716 4.9422016e-005
3018	13189817 637 3861 64327 8.370381017244 183.657541731605 15 0.00022 0.001547667806 0.016326325377 2.0269492485035e-005
3019	13190454 642 3861 64327 8.370381017244 183.657541731605 15 0.101698889994 0.65647 4.550489112477 1.8090596343939
3020	13191096 550 3861 64327 8.370381017244 183.657541731605 15 1 2.6261 20.809128719955 33.006128767194
3021	13191646 506 3861 64327 8.370381017244 183.657541731605 15 1072 1608 16616 18674240
3022	13192152 596 3861 64327 8.370381017244 183.657541731605 15 4294967295 4294967295 64424509425 2.7670116097679e+020
3023	13192748 461 3861 64327 8.370381017244 183.657541731605 15 0 0 0 0
3024	13193209 456 4029 63659 8.916553239541 181.337205114885 15 0 0 0 0
3025	13193665 577 4029 63659 8.916553239541 181.337205114885 16 7504 2236870 33560554 75053867263516
3026	13194242 501 4029 63659 8.916553239541 181.337205114885 15 7504 7504 112560 844650240
3027	13194743 540 4029 63659 8.916553239541 181.337205114885 15 0 2229366 31211124 69581018667384
3028	13195283 580 4036 63665 8.917461239541 181.338089114885 16 2236643 2236658 35786405 80041673926881
3029	13195863 62 4036 4049 8.917461239541 8.919253239541 2 7504 7504 15008 112620032
3030	13195925 884 4036 63665 8.917461239541 181.338089114885 29 0 1 1 1
3031	13196809 501 4036 63665 8.917461239541 181.338089114885 15 7503 7504 112559 844635233
3032	13197310 546 4036 63665 8.917461239541 181.338089114885 15 2229139 2229154 33437203 74536436297855
3033	13197856 546 4042 63672 8.918369239541 181.338965114885 15 2229365 2229366 33440489 74551086970609
3034	13198402 546 4042 63672 8.918369239541 181.338965114885 15 2229139 2229154 33437203 74536436297855
3035	13198948 501 4042 63672 8.918369239541 181.338965114885 15 7503 7504 112559 844635233
3036	13199449 856 4042 63672 8.918369239541 181.338965114885 28 0 2 15 17
3037	13200305 512 4049 63665 8.919253239541 181.338089114885 14 2229139 2229153 31208049 69567308742139
3038	13200817 512 4049 63665 8.919253239541 181.338089114885 14 2229366 2229366 31211124 69581018667384
3039	13201329 28 4049 4049 8.919253239541 8.919253239541 1 0 0 0 0
3040	13201357 31 4049 4049 8.919253239541 8.919253239541 1 1072 1072 1072 1149184
3041	13201388 37 4049 4049 8.919253239541 8.919253239541 1 4294967295 4294967295 4294967295 1.844674406512e+019
3042	13201425 428 4049 63665 8.919253239541 181.338089114885 14 0 0 0 0
3043	13201853 515 4059 63672 8.920129239541 181.338965114885 14 0.00176 0.002136 0.0254 4.6324416e-005
3044	13202368 595 4059 63672 8.920129239541 181.338965114885 14 0.00022 0.00151730586 0.014778858983 1.7873365414504e-005
3045	13202963 598 4059 63672 8.920129239541 181.338965114885 14 0.116192624038 0.65647 4.44879007862 1.798717292194
3046	13203561 517 4059 63672 8.920129239541 181.338965114885 14 1 2.6261 19.809129425218 32.006138033418
3047	13204078 470 4059 63672 8.920129239541 181.338965114885 14 1072 1072 15008 16088576
3048	13204548 554 4059 63672 8.920129239541 181.338965114885 14 4294967295 4294967295 60129542130 2.5825441691167e+020
3049	13205102 428 4059 63672 8.920129239541 181.338965114885 14 0 0 0 0
3050	13205530 458 4297 63794 9.748896755883 181.790237128801 15 0 0 0 0
3051	13205988 579 4297 63794 9.748896755883 181.790237128801 16 7504 2444956 36681844 89667203939056
3052	13206567 503 4297 63794 9.748896755883 181.790237128801 15 7504 7504 112560 844650240
3053	13207070 542 4297 63794 9.748896755883 181.790237128801 15 0 2437452 34124328 83176411532256
3054	13207612 582 4304 63800 9.749804755883 181.791121128801 16 2444729 2444744 39115781 95627770202877
3055	13208194 62 4304 4317 9.749804755883 9.751596755883 2 7504 7504 15008 112620032
3056	13208256 888 4304 63800 9.749804755883 181.791121128801 29 0 1 1 1
3057	13209144 503 4304 63800 9.749804755883 181.791121128801 15 7503 7504 112559 844635233
3058	13209647 548 4304 63800 9.749804755883 181.791121128801 15 2437225 2437240 36558493 89101560695711
3059	13210195 548 4310 63807 9.750712755883 181.791997128801 15 2437451 2437452 36561779 89117578909657
3060	13210743 548 4310 63807 9.750712755883 181.791997128801 15 2437225 2437240 36558493 89101560695711
3061	13211291 503 4310 63807 9.750712755883 181.791997128801 15 7503 7504 112559 844635233
3062	13211794 860 4310 63807 9.750712755883 181.791997128801 28 0 2 15 17
3063	13212654 514 4317 63800 9.751596755883 181.791121128801 14 2437225 2437239 34121253 83161421878111
3064	13213168 514 4317 63800 9.751596755883 181.791121128801 14 2437452 2437452 34124328 83176411532256
3065	13213682 28 4317 4317 9.751596755883 9.751596755883 1 0 0 0 0
3066	13213710 31 4317 4317 9.751596755883 9.751596755883 1 1072 1072 1072 1149184
3067	13213741 37 4317 4317 9.751596755883 9.751596755883 1 4294967295 4294967295 4294967295 1.844674406512e+019
3068	13213778 430 4317 63800 9.751596755883 181.791121128801 14 0 0 0 0
3069	13214208 517 4327 63807 9.752472755883 181.791997128801 14 0.00176 0.002136 0.0254 4.6324416e-005
3070	13214725 597 4327 63807 9.752472755883 181.791997128801 14 0.00022 0.00151730586 0.014778858983 1.7873365414504e-005
3071	13215322 600 4327 63807 9.752472755883 181.791997128801 14 0.116192624038 0.65647 4.44879007862 1.798717292194
3072	13215922 519 4327 63807 9.752472755883 181.791997128801 14 1 2.6261 19.809129425218 32.006138033418
3073	13216441 472 4327 63807 9.752472755883 181.791997128801 14 1072 1608 15544 17525056
3074	13216913 556 4327 63807 9.752472755883 181.791997128801 14 4294967295 4294967295 60129542130 2.5825441691167e+020
3075	13217469 430 4327 63807 9.752472755883 181.791997128801 14 0 0 0 0
3076	13217899 2337 4781 132905 11.284420300911 832.329816673967 75 0 0 0 0
3077	13220236 2819 4781 132905 11.284420300911 832.329816673967 76 7504 2828837 212170279 6.0017396425269e+014
3078	13223055 2562 4781 132905 11.284420300911 832.329816673967 75 7504 7504 562800 4223251200
3079	13225617 2781 4781 132905 11.284420300911 832.329816673967 75 0 2821333 208778642 5.8903407236979e+014
3080	13228398 2822 4788 132915 11.285328300911 832.331076673967 76 2828610 2828685 214977207 6.0809473068838e+014
3081	13231220 64 4788 4801 11.285328300911 11.287120300911 2 7504 7504 15008 112620032
3082	13231284 4645 4788 132915 11.285328300911 832.331076673967 149 0 1 1 1
3083	13235929 2562 4788 132915 11.285328300911 832.331076673967 75 7503 7504 562799 4223236193
3084	13238491 2787 4788 132915 11.285328300911 832.331076673967 75 2821106 2821181 211585798 5.9691399890592e+014
3085	13241278 2787 4794 132922 11.286236300911 832.331952673967 75 2821332 2821333 211599974 5.9699398662401e+014
3086	13244065 2787 4794 132922 11.286236300911 832.331952673967 75 2821106 2821181 211585798 5.9691399890592e+014
3087	13246852 2562 4794 132922 11.286236300911 832.331952673967 75 7503 7504 562799 4223236193
3088	13249414 4616 4794 132922 11.286236300911 832.331952673967 148 0 2 77 81
3089	13254030 2752 4801 132915 11.287120300911 832.331076673967 74 2821106 2821180 208764617 5.8895493667116e+014
3090	13256782 2752 4801 132915 11.287120300911 832.331076673967 74 2821333 2821333 208778642 5.8903407236979e+014
3091	13259534 29 4801 4801 11.287120300911 11.287120300911 1 0 0 0 0
3092	13259563 32 4801 4801 11.287120300911 11.287120300911 1 1072 1072 1072 1149184
3093	13259595 38 4801 4801 11.287120300911 11.287120300911 1 4294967295 4294967295 4294967295 1.844674406512e+019
3094	13259633 2308 4801 132915 11.287120300911 832.331076673967 74 0 0 0 0
3095	13261941 2745 4811 132922 11.287996300911 832.331952673967 73 0.00176 0.002136 0.139392 0.000268635008
3096	13264686 3209 4811 132922 11.287996300911 832.331952673967 73 0.00022 0.001955340696 0.125750005542 0.0002259489815281
3097	13267895 3204 4811 132922 11.287996300911 832.331952673967 73 0.00023895945 0.65647 5.271699234428 1.8432633690334
3098	13271099 2366 4811 132922 11.287996300911 832.331952673967 73 1 2.6261 78.810991741401 91.01140927749
3099	13273465 2530 4811 132922 11.287996300911 832.331952673967 74 1072 1608 90048 113769216
3100	13275995 2974 4811 132922 11.287996300911 832.331952673967 74 4294967295 4294967295 317827579830 1.3650590608189e+021
3101	13278969 2308 4811 132922 11.287996300911 832.331952673967 74 0 0 0 0
3102	13281277 1994 47711 132954 140.153327866198 832.774396097533 64 0 0 0 0
3103	13283271 2476 47711 132954 140.153327866198 832.774396097533 65 7504 35046063 2242955536 7.8606498091508e+016
3104	13285747 2186 47711 132954 140.153327866198 832.774396097533 64 7504 7504 480256 3603841024
3105	13287933 2435 47711 132954 140.153327866198 832.774396097533 64 0 35038559 2207429217 7.7345138858178e+016
3106	13290368 4116 47714 132978 140.153327866198 832.776540097533 128 40 44 5191 210575
3107	13294484 4116 47714 132978 140.153327866198 832.776540097533 128 40 44 5191 210575
3108	13298600 7976 47714 132978 140.153327866198 832.776540097533 256 0 1 128 128
3109	13306576 4116 47714 132978 140.153327866198 832.776540097533 128 40 44 5191 210575
3110	13310692 4191 47714 132978 140.153327866198 832.776540097533 128 0 0.000376 0.010904 4.099904e-006
3111	13314883 4116 47714 132978 140.153327866198 832.776540097533 128 47 51 6087 289521
3112	13318999 4116 47716 132980 140.154235866198 832.777416097533 128 47 51 6087 289521
3113	13323115 4116 47716 132980 140.154235866198 832.777416097533 128 40 44 5191 210575
3114	13327231 2480 47718 132960 140.154235866198 832.775280097533 65 35045836 35045899 2277981355 7.9833831595833e+016
3115	13329711 68 47718 47731 140.154235866198 140.156027866198 2 7504 7504 15008 112620032
3116	13329779 3957 47718 132960 140.154235866198 832.775280097533 127 0 1 1 1
3117	13333736 2186 47718 132960 140.154235866198 832.775280097533 64 7503 7504 480255 3603826017
3118	13335922 2442 47718 132960 140.154235866198 832.775280097533 64 35038332 35038395 2242455264 7.8571962672542e+016
3119	13338364 4116 47720 132967 140.154235866198 832.775280097533 128 40 44 5191 210575
3120	13342480 4116 47720 132967 140.154235866198 832.775280097533 128 40 44 5191 210575
3121	13346596 7976 47720 132968 140.154235866198 832.775656097533 256 0 2 130 132
3122	13354572 4116 47720 132968 140.154235866198 832.775656097533 128 40 44 5191 210575
3123	13358688 4204 47720 132968 140.154235866198 832.775656097533 128 0 0.000469037386 0.011373037386 4.3199000694657e-006
3124	13362892 4116 47720 132968 140.154235866198 832.775656097533 128 47 51 6087 289521
3125	13367008 4116 47722 132973 140.155143866198 832.776540097533 128 47 51 6087 289521
3126	13371124 4116 47722 132973 140.155143866198 832.776540097533 128 40 44 5191 210575
3127	13375240 2442 47724 132972 140.155143866198 832.776156097533 64 35038558 35038559 2242467775 7.8572839404898e+016
3128	13377682 2442 47724 132972 140.155143866198 832.776156097533 64 35038332 35038395 2242455264 7.8571962672542e+016
3129	13380124 2186 47724 132972 140.155143866198 832.776156097533 64 7503 7504 480255 3603826017
3130	13382310 3926 47724 132972 140.155143866198 832.776156097533 126 0 1 63 63
3131	13386236 2404 47731 132960 140.156027866198 832.775280097533 63 35038332 35038394 2207416869 7.7344273548366e+016
3132	13388640 2404 47731 132960 140.156027866198 832.775280097533 63 35038559 35038559 2207429217 7.7345138858178e+016
3133	13391044 31 47731 47731 140.156027866198 140.156027866198 1 0 0 0 0
3134	13391075 34 47731 47731 140.156027866198 140.156027866198 1 1072 1072 1072 1149184
3135	13391109 40 47731 47731 140.156027866198 140.156027866198 1 4294967295 4294967295 4294967295 1.844674406512e+019
3136	13391149 1963 47731 132960 140.156027866198 832.775280097533 63 0 0 0 0
3137	13393112 2370 47741 132972 140.156903866198 832.776156097533 63 0.00176 0.002136 0.121784 0.000237630784
3138	13395482 2763 47741 132972 140.156903866198 832.776156097533 63 0.00022 0.001957823231 0.10834652728 0.00019609200913423
3139	13398245 2767 47741 132972 140.156903866198 832.776156097533 63 0.000363513198 0.65647 5.270593445097 1.8432588100167
3140	13401012 2051 47741 132972 140.156903866198 832.776156097533 63 1 2.6261 68.809502112841 81.007381686698
3141	13403063 2152 47741 132972 140.156903866198 832.776156097533 63 1072 1608 82008 111183552
3142	13405215 2530 47741 132972 140.156903866198 832.776156097533 63 4294967295 4294967295 270582939585 1.1621448761025e+021
3143	13407745 1963 47741 132972 140.156903866198 832.776156097533 63 0 0 0 0
3144	13409708 1994 47773 132965 140.276561607461 832.775280097533 64 0 0 0 0
3145	13411702 2476 47773 132965 140.276561607461 832.775280097533 65 7504 35076872 2244927312 7.8744764811791e+016
3146	13414178 2186 47773 132965 140.276561607461 832.775280097533 64 7504 7504 480256 3603841024
3147	13416364 2435 47773 132965 140.276561607461 832.775280097533 64 0 35069368 2209370184 7.7481216030924e+016
3148	13418799 2480 47780 132975 140.277469607461 832.776540097533 65 35076645 35076708 2279983940 7.9974257948606e+016
3149	13421279 68 47780 47793 140.277469607461 140.279261607461 2 7504 7504 15008 112620032
3150	13421347 3957 47780 132975 140.277469607461 832.776540097533 127 0 1 1 1
3151	13425304 2186 47780 132975 140.277469607461 832.776540097533 64 7503 7504 480255 3603826017
3152	13427490 2442 47780 132975 140.277469607461 832.776540097533 64 35069141 35069204 2244427040 7.8710199029446e+016
3153	13429932 2442 47786 132982 140.278377607461 832.777416097533 64 35069367 35069368 2244439551 7.8711076532704e+016
3154	13432374 2442 47786 132982 140.278377607461 832.777416097533 64 35069141 35069204 2244427040 7.8710199029446e+016
3155	13434816 2186 47786 132982 140.278377607461 832.777416097533 64 7503 7504 480255 3603826017
3156	13437002 3926 47786 132982 140.278377607461 832.777416097533 126 0 2 65 67
3157	13440928 2404 47793 132975 140.279261607461 832.776540097533 63 35069141 35069203 2209357836 7.7480349960253e+016
3158	13443332 2404 47793 132975 140.279261607461 832.776540097533 63 35069368 35069368 2209370184 7.7481216030924e+016
3159	13445736 31 47793 47793 140.279261607461 140.279261607461 1 0 0 0 0
3160	13445767 34 47793 47793 140.279261607461 140.279261607461 1 1072 1072 1072 1149184
3161	13445801 40 47793 47793 140.279261607461 140.279261607461 1 4294967295 4294967295 4294967295 1.844674406512e+019
3162	13445841 1963 47793 132975 140.279261607461 832.776540097533 63 0 0 0 0
3163	13447804 2332 47803 132982 140.280137607461 832.777416097533 62 0.00176 0.002136 0.120024 0.000234533184
3164	13450136 2714 47803 132982 140.280137607461 832.777416097533 62 0.00022 0.001957793803 0.106386545952 0.00019206386508391
3165	13452850 2715 47803 132982 140.280137607461 832.777416097533 62 0.000391385997 0.65647 5.270032520771 1.8432862507499
3166	13455565 2020 47803 132982 140.280137607461 832.777416097533 62 1 2.6261 67.809792164614 80.008668442274
3167	13457585 2152 47803 132982 140.280137607461 832.777416097533 63 1072 2144 83080 114631104
3168	13459737 2530 47803 132982 140.280137607461 832.777416097533 63 4294967295 4294967295 270582939585 1.1621448761025e+021
3169	13462267 1963 47803 132982 140.280137607461 832.777416097533 63 0 0 0 0

