file 4609743 1644341396                                         
version 2
run BROADCAST8b-0-20220208-18:29:49-14888
attr configname BROADCAST8b
attr datetime 20220208-18:29:49
attr experiment BROADCAST8b
attr inifile omnetpp.ini
attr iterationvars ""
attr iterationvarsf ""
attr measurement ""
attr network scenario
attr processid 14888
attr repetition 0
attr replication #0
attr resultdir results
attr runnumber 0
attr seedset 0
param *.n 8
param **.client[*].app[0].nPar 8
param **.client[*].app[0].nNPar 3
param **.client[0].app[0].numMsg 4
param **.client[0].app[0].sendFrequency 2.5
param **.client[0].app[0].startSend 0.5
param **.client[1].app[0].numMsg 4
param **.client[1].app[0].sendFrequency 2.5
param **.client[1].app[0].startSend 3.5
param **.client[5].app[0].join 1.0
param **.client[6].app[0].join 4.0
param **.client[7].app[0].join 10.0
param **.ppp[*].ppp.queue.typename "\"DropTailQueue\""
param **.tcp.typename "\"Tcp\""
param **.tcp.nagleEnabled false
param **.client[*].app[*].fPar 0
param **.numApps 1
param **.client[*].app[*].typename "\"Node\""
param **.client[*].app[0].localPort index+1000
param **.client[*].app[0].localPortL 1234
param **.client[*].app[0].connectAddress "\"\""
param **.client[*].app[0].connectPort 1234

vector 0 scenario.client[0].ppp[0].ppp transmissionState:vector ETV
attr interpolationmode sample-hold
attr source transmissionStateChanged
attr title "tx state, vector"
vector 1 scenario.client[0].ppp[1].ppp transmissionState:vector ETV
attr interpolationmode sample-hold
attr source transmissionStateChanged
attr title "tx state, vector"
vector 2 scenario.client[0].ppp[2].ppp transmissionState:vector ETV
attr interpolationmode sample-hold
attr source transmissionStateChanged
attr title "tx state, vector"
vector 3 scenario.client[0].ppp[3].ppp transmissionState:vector ETV
attr interpolationmode sample-hold
attr source transmissionStateChanged
attr title "tx state, vector"
vector 4 scenario.client[0].ppp[4].ppp transmissionState:vector ETV
attr interpolationmode sample-hold
attr source transmissionStateChanged
attr title "tx state, vector"
vector 5 scenario.client[0].ppp[5].ppp transmissionState:vector ETV
attr interpolationmode sample-hold
attr source transmissionStateChanged
attr title "tx state, vector"
vector 6 scenario.client[0].ppp[6].ppp transmissionState:vector ETV
attr interpolationmode sample-hold
attr source transmissionStateChanged
attr title "tx state, vector"
vector 7 scenario.client[1].ppp[0].ppp transmissionState:vector ETV
attr interpolationmode sample-hold
attr source transmissionStateChanged
attr title "tx state, vector"
vector 8 scenario.client[1].ppp[1].ppp transmissionState:vector ETV
attr interpolationmode sample-hold
attr source transmissionStateChanged
attr title "tx state, vector"
vector 9 scenario.client[1].ppp[2].ppp transmissionState:vector ETV
attr interpolationmode sample-hold
attr source transmissionStateChanged
attr title "tx state, vector"
vector 10 scenario.client[1].ppp[3].ppp transmissionState:vector ETV
attr interpolationmode sample-hold
attr source transmissionStateChanged
attr title "tx state, vector"
vector 11 scenario.client[1].ppp[4].ppp transmissionState:vector ETV
attr interpolationmode sample-hold
attr source transmissionStateChanged
attr title "tx state, vector"
vector 12 scenario.client[1].ppp[5].ppp transmissionState:vector ETV
attr interpolationmode sample-hold
attr source transmissionStateChanged
attr title "tx state, vector"
vector 13 scenario.client[1].ppp[6].ppp transmissionState:vector ETV
attr interpolationmode sample-hold
attr source transmissionStateChanged
attr title "tx state, vector"
vector 14 scenario.client[2].ppp[0].ppp transmissionState:vector ETV
attr interpolationmode sample-hold
attr source transmissionStateChanged
attr title "tx state, vector"
vector 15 scenario.client[2].ppp[1].ppp transmissionState:vector ETV
attr interpolationmode sample-hold
attr source transmissionStateChanged
attr title "tx state, vector"
vector 16 scenario.client[2].ppp[2].ppp transmissionState:vector ETV
attr interpolationmode sample-hold
attr source transmissionStateChanged
attr title "tx state, vector"
vector 17 scenario.client[2].ppp[3].ppp transmissionState:vector ETV
attr interpolationmode sample-hold
attr source transmissionStateChanged
attr title "tx state, vector"
vector 18 scenario.client[2].ppp[4].ppp transmissionState:vector ETV
attr interpolationmode sample-hold
attr source transmissionStateChanged
attr title "tx state, vector"
vector 19 scenario.client[2].ppp[5].ppp transmissionState:vector ETV
attr interpolationmode sample-hold
attr source transmissionStateChanged
attr title "tx state, vector"
vector 20 scenario.client[2].ppp[6].ppp transmissionState:vector ETV
attr interpolationmode sample-hold
attr source transmissionStateChanged
attr title "tx state, vector"
vector 21 scenario.client[3].ppp[0].ppp transmissionState:vector ETV
attr interpolationmode sample-hold
attr source transmissionStateChanged
attr title "tx state, vector"
vector 22 scenario.client[3].ppp[1].ppp transmissionState:vector ETV
attr interpolationmode sample-hold
attr source transmissionStateChanged
attr title "tx state, vector"
vector 23 scenario.client[3].ppp[2].ppp transmissionState:vector ETV
attr interpolationmode sample-hold
attr source transmissionStateChanged
attr title "tx state, vector"
vector 24 scenario.client[3].ppp[3].ppp transmissionState:vector ETV
attr interpolationmode sample-hold
attr source transmissionStateChanged
attr title "tx state, vector"
vector 25 scenario.client[3].ppp[4].ppp transmissionState:vector ETV
attr interpolationmode sample-hold
attr source transmissionStateChanged
attr title "tx state, vector"
vector 26 scenario.client[3].ppp[5].ppp transmissionState:vector ETV
attr interpolationmode sample-hold
attr source transmissionStateChanged
attr title "tx state, vector"
vector 27 scenario.client[3].ppp[6].ppp transmissionState:vector ETV
attr interpolationmode sample-hold
attr source transmissionStateChanged
attr title "tx state, vector"
vector 28 scenario.client[4].ppp[0].ppp transmissionState:vector ETV
attr interpolationmode sample-hold
attr source transmissionStateChanged
attr title "tx state, vector"
vector 29 scenario.client[4].ppp[1].ppp transmissionState:vector ETV
attr interpolationmode sample-hold
attr source transmissionStateChanged
attr title "tx state, vector"
vector 30 scenario.client[4].ppp[2].ppp transmissionState:vector ETV
attr interpolationmode sample-hold
attr source transmissionStateChanged
attr title "tx state, vector"
vector 31 scenario.client[4].ppp[3].ppp transmissionState:vector ETV
attr interpolationmode sample-hold
attr source transmissionStateChanged
attr title "tx state, vector"
vector 32 scenario.client[4].ppp[4].ppp transmissionState:vector ETV
attr interpolationmode sample-hold
attr source transmissionStateChanged
attr title "tx state, vector"
vector 33 scenario.client[4].ppp[5].ppp transmissionState:vector ETV
attr interpolationmode sample-hold
attr source transmissionStateChanged
attr title "tx state, vector"
vector 34 scenario.client[4].ppp[6].ppp transmissionState:vector ETV
attr interpolationmode sample-hold
attr source transmissionStateChanged
attr title "tx state, vector"
vector 35 scenario.client[5].ppp[0].ppp transmissionState:vector ETV
attr interpolationmode sample-hold
attr source transmissionStateChanged
attr title "tx state, vector"
vector 36 scenario.client[5].ppp[1].ppp transmissionState:vector ETV
attr interpolationmode sample-hold
attr source transmissionStateChanged
attr title "tx state, vector"
vector 37 scenario.client[5].ppp[2].ppp transmissionState:vector ETV
attr interpolationmode sample-hold
attr source transmissionStateChanged
attr title "tx state, vector"
vector 38 scenario.client[5].ppp[3].ppp transmissionState:vector ETV
attr interpolationmode sample-hold
attr source transmissionStateChanged
attr title "tx state, vector"
vector 39 scenario.client[5].ppp[4].ppp transmissionState:vector ETV
attr interpolationmode sample-hold
attr source transmissionStateChanged
attr title "tx state, vector"
vector 40 scenario.client[5].ppp[5].ppp transmissionState:vector ETV
attr interpolationmode sample-hold
attr source transmissionStateChanged
attr title "tx state, vector"
vector 41 scenario.client[5].ppp[6].ppp transmissionState:vector ETV
attr interpolationmode sample-hold
attr source transmissionStateChanged
attr title "tx state, vector"
vector 42 scenario.client[6].ppp[0].ppp transmissionState:vector ETV
attr interpolationmode sample-hold
attr source transmissionStateChanged
attr title "tx state, vector"
vector 43 scenario.client[6].ppp[1].ppp transmissionState:vector ETV
attr interpolationmode sample-hold
attr source transmissionStateChanged
attr title "tx state, vector"
vector 44 scenario.client[6].ppp[2].ppp transmissionState:vector ETV
attr interpolationmode sample-hold
attr source transmissionStateChanged
attr title "tx state, vector"
vector 45 scenario.client[6].ppp[3].ppp transmissionState:vector ETV
attr interpolationmode sample-hold
attr source transmissionStateChanged
attr title "tx state, vector"
vector 46 scenario.client[6].ppp[4].ppp transmissionState:vector ETV
attr interpolationmode sample-hold
attr source transmissionStateChanged
attr title "tx state, vector"
vector 47 scenario.client[6].ppp[5].ppp transmissionState:vector ETV
attr interpolationmode sample-hold
attr source transmissionStateChanged
attr title "tx state, vector"
vector 48 scenario.client[6].ppp[6].ppp transmissionState:vector ETV
attr interpolationmode sample-hold
attr source transmissionStateChanged
attr title "tx state, vector"
vector 49 scenario.client[7].ppp[0].ppp transmissionState:vector ETV
attr interpolationmode sample-hold
attr source transmissionStateChanged
attr title "tx state, vector"
vector 50 scenario.client[7].ppp[1].ppp transmissionState:vector ETV
attr interpolationmode sample-hold
attr source transmissionStateChanged
attr title "tx state, vector"
vector 51 scenario.client[7].ppp[2].ppp transmissionState:vector ETV
attr interpolationmode sample-hold
attr source transmissionStateChanged
attr title "tx state, vector"
vector 52 scenario.client[7].ppp[3].ppp transmissionState:vector ETV
attr interpolationmode sample-hold
attr source transmissionStateChanged
attr title "tx state, vector"
vector 53 scenario.client[7].ppp[4].ppp transmissionState:vector ETV
attr interpolationmode sample-hold
attr source transmissionStateChanged
attr title "tx state, vector"
vector 54 scenario.client[7].ppp[5].ppp transmissionState:vector ETV
attr interpolationmode sample-hold
attr source transmissionStateChanged
attr title "tx state, vector"
vector 55 scenario.client[7].ppp[6].ppp transmissionState:vector ETV
attr interpolationmode sample-hold
attr source transmissionStateChanged
attr title "tx state, vector"
vector 56 scenario.client[0].tcp.conn-64 tcpRcvQueueBytes:vector ETV
attr interpolationmode sample-hold
vector 57 scenario.client[0].tcp.conn-64 rcvAdv:vector ETV
attr interpolationmode sample-hold
vector 58 scenario.client[0].tcp.conn-64 rcvWnd:vector ETV
attr interpolationmode sample-hold
vector 59 scenario.client[0].tcp.conn-64 sndAck:vector ETV
attr interpolationmode sample-hold
vector 60 scenario.client[0].ppp[0].ppp rcvdPkFromHl:vector(packetBytes) ETV
attr interpolationmode none
attr source packetReceivedFromUpper
attr title "packets received from higher layer, vector(packetBytes)"
vector 61 scenario.client[0].ppp[0].ppp.queue packetPushed:vector(packetBytes) ETV
attr interpolationmode none
attr title "packet pushed, vector(packetBytes)"
vector 62 scenario.client[0].ppp[0].ppp.queue queueLength:vector ETV
attr interpolationmode sample-hold
attr source "count(packetPushed) - count(packetPopped) - count(packetRemoved) - count(packetDropped)"
attr title "queue length, vector"
vector 63 scenario.client[0].ppp[0].ppp.queue packetPopped:vector(packetBytes) ETV
attr interpolationmode none
attr title "packet popped, vector(packetBytes)"
vector 64 scenario.client[0].ppp[0].ppp.queue queueingTime:vector ETV
attr interpolationmode none
attr source queueingTime(packetPopped)
attr title "queueing times, vector"
attr unit s
vector 65 scenario.client[0].ppp[0].ppp txPk:vector(packetBytes) ETV
attr interpolationmode none
attr source packetSentToLower
attr title "packets transmitted, vector(packetBytes)"
vector 66 scenario.client[1].ppp[0].ppp rxPkOk:vector(packetBytes) ETV
attr interpolationmode none
attr source rxPkOk
attr title "packets received OK, vector(packetBytes)"
vector 67 scenario.client[1].ppp[0].ppp passedUpPk:vector(packetBytes) ETV
attr interpolationmode none
attr source packetSentToUpper
attr title "packets passed to higher layer, vector(packetBytes)"
vector 68 scenario.client[1].tcp.conn-1 rcvSeq:vector ETV
attr interpolationmode sample-hold
vector 69 scenario.client[1].tcp.conn-1 rcvAck:vector ETV
attr interpolationmode sample-hold
vector 70 scenario.client[1].tcp.conn-65 rcvAdv:vector ETV
attr interpolationmode sample-hold
vector 71 scenario.client[1].tcp.conn-65 sndWnd:vector ETV
attr interpolationmode sample-hold
vector 72 scenario.client[1].tcp.conn-65 tcpRcvQueueBytes:vector ETV
attr interpolationmode sample-hold
vector 73 scenario.client[1].tcp.conn-65 rcvWnd:vector ETV
attr interpolationmode sample-hold
vector 74 scenario.client[1].tcp.conn-65 sndAck:vector ETV
attr interpolationmode sample-hold
vector 75 scenario.client[1].ppp[0].ppp rcvdPkFromHl:vector(packetBytes) ETV
attr interpolationmode none
attr source packetReceivedFromUpper
attr title "packets received from higher layer, vector(packetBytes)"
vector 76 scenario.client[1].ppp[0].ppp.queue packetPushed:vector(packetBytes) ETV
attr interpolationmode none
attr title "packet pushed, vector(packetBytes)"
vector 77 scenario.client[1].ppp[0].ppp.queue queueLength:vector ETV
attr interpolationmode sample-hold
attr source "count(packetPushed) - count(packetPopped) - count(packetRemoved) - count(packetDropped)"
attr title "queue length, vector"
vector 78 scenario.client[1].ppp[0].ppp.queue packetPopped:vector(packetBytes) ETV
attr interpolationmode none
attr title "packet popped, vector(packetBytes)"
vector 79 scenario.client[1].ppp[0].ppp.queue queueingTime:vector ETV
attr interpolationmode none
attr source queueingTime(packetPopped)
attr title "queueing times, vector"
attr unit s
vector 80 scenario.client[1].ppp[0].ppp txPk:vector(packetBytes) ETV
attr interpolationmode none
attr source packetSentToLower
attr title "packets transmitted, vector(packetBytes)"
vector 81 scenario.client[0].ppp[0].ppp rxPkOk:vector(packetBytes) ETV
attr interpolationmode none
attr source rxPkOk
attr title "packets received OK, vector(packetBytes)"
vector 82 scenario.client[0].ppp[0].ppp passedUpPk:vector(packetBytes) ETV
attr interpolationmode none
attr source packetSentToUpper
attr title "packets passed to higher layer, vector(packetBytes)"
vector 83 scenario.client[0].tcp.conn-64 rcvSeq:vector ETV
attr interpolationmode sample-hold
vector 84 scenario.client[0].tcp.conn-64 rcvAck:vector ETV
attr interpolationmode sample-hold
vector 85 scenario.client[0].tcp.conn-64 sndWnd:vector ETV
attr interpolationmode sample-hold
vector 86 scenario.client[0].tcp.conn-64 unacked:vector ETV
attr interpolationmode sample-hold
vector 87 scenario.client[1].tcp.conn-65 rcvSeq:vector ETV
attr interpolationmode sample-hold
vector 88 scenario.client[1].tcp.conn-65 rcvAck:vector ETV
attr interpolationmode sample-hold
vector 89 scenario.client[1].tcp.conn-65 unacked:vector ETV
attr interpolationmode sample-hold
vector 90 scenario.client[1].tcp.conn-65 cwnd:vector ETV
attr interpolationmode sample-hold
vector 91 scenario.client[1].tcp.conn-65 ssthresh:vector ETV
attr interpolationmode sample-hold
vector 92 scenario.client[1].tcp.conn-65 dupAcks:vector ETV
attr interpolationmode sample-hold
vector 93 scenario.client[1].tcp.conn-66 tcpRcvQueueBytes:vector ETV
attr interpolationmode sample-hold
vector 94 scenario.client[1].tcp.conn-66 rcvAdv:vector ETV
attr interpolationmode sample-hold
vector 95 scenario.client[1].tcp.conn-66 rcvWnd:vector ETV
attr interpolationmode sample-hold
vector 96 scenario.client[1].tcp.conn-66 sndAck:vector ETV
attr interpolationmode sample-hold
vector 97 scenario.client[0].tcp.conn-64 rtt:vector ETV
attr interpolationmode sample-hold
vector 98 scenario.client[0].tcp.conn-64 srtt:vector ETV
attr interpolationmode sample-hold
vector 99 scenario.client[0].tcp.conn-64 rttvar:vector ETV
attr interpolationmode sample-hold
vector 100 scenario.client[0].tcp.conn-64 rto:vector ETV
attr interpolationmode sample-hold
vector 101 scenario.client[0].tcp.conn-64 cwnd:vector ETV
attr interpolationmode sample-hold
vector 102 scenario.client[0].tcp.conn-64 ssthresh:vector ETV
attr interpolationmode sample-hold
vector 103 scenario.client[0].tcp.conn-64 dupAcks:vector ETV
attr interpolationmode sample-hold
vector 104 scenario.client[0].tcp.conn-0 rcvSeq:vector ETV
attr interpolationmode sample-hold
vector 105 scenario.client[0].tcp.conn-0 rcvAck:vector ETV
attr interpolationmode sample-hold
vector 106 scenario.client[0].tcp.conn-67 rcvAdv:vector ETV
attr interpolationmode sample-hold
vector 107 scenario.client[0].tcp.conn-67 sndWnd:vector ETV
attr interpolationmode sample-hold
vector 108 scenario.client[0].tcp.conn-67 tcpRcvQueueBytes:vector ETV
attr interpolationmode sample-hold
vector 109 scenario.client[0].tcp.conn-67 rcvWnd:vector ETV
attr interpolationmode sample-hold
vector 110 scenario.client[0].tcp.conn-67 sndAck:vector ETV
attr interpolationmode sample-hold
vector 111 scenario.client[1].tcp.conn-66 rcvSeq:vector ETV
attr interpolationmode sample-hold
vector 112 scenario.client[1].tcp.conn-66 rcvAck:vector ETV
attr interpolationmode sample-hold
vector 113 scenario.client[1].tcp.conn-66 sndWnd:vector ETV
attr interpolationmode sample-hold
vector 114 scenario.client[1].tcp.conn-66 unacked:vector ETV
attr interpolationmode sample-hold
vector 115 scenario.client[0].tcp.conn-67 rcvSeq:vector ETV
attr interpolationmode sample-hold
vector 116 scenario.client[0].tcp.conn-67 rcvAck:vector ETV
attr interpolationmode sample-hold
vector 117 scenario.client[0].tcp.conn-67 unacked:vector ETV
attr interpolationmode sample-hold
vector 118 scenario.client[0].tcp.conn-67 cwnd:vector ETV
attr interpolationmode sample-hold
vector 119 scenario.client[0].tcp.conn-67 ssthresh:vector ETV
attr interpolationmode sample-hold
vector 120 scenario.client[0].tcp.conn-67 dupAcks:vector ETV
attr interpolationmode sample-hold
vector 121 scenario.client[1].tcp.conn-66 rtt:vector ETV
attr interpolationmode sample-hold
vector 122 scenario.client[1].tcp.conn-66 srtt:vector ETV
attr interpolationmode sample-hold
vector 123 scenario.client[1].tcp.conn-66 rttvar:vector ETV
attr interpolationmode sample-hold
vector 124 scenario.client[1].tcp.conn-66 rto:vector ETV
attr interpolationmode sample-hold
vector 125 scenario.client[1].tcp.conn-66 cwnd:vector ETV
attr interpolationmode sample-hold
vector 126 scenario.client[1].tcp.conn-66 ssthresh:vector ETV
attr interpolationmode sample-hold
vector 127 scenario.client[1].tcp.conn-66 dupAcks:vector ETV
attr interpolationmode sample-hold
vector 128 scenario.client[0].tcp.conn-68 tcpRcvQueueBytes:vector ETV
attr interpolationmode sample-hold
vector 129 scenario.client[0].tcp.conn-68 rcvAdv:vector ETV
attr interpolationmode sample-hold
vector 130 scenario.client[0].tcp.conn-68 rcvWnd:vector ETV
attr interpolationmode sample-hold
vector 131 scenario.client[0].tcp.conn-68 sndAck:vector ETV
attr interpolationmode sample-hold
vector 132 scenario.client[0].ppp[1].ppp rcvdPkFromHl:vector(packetBytes) ETV
attr interpolationmode none
attr source packetReceivedFromUpper
attr title "packets received from higher layer, vector(packetBytes)"
vector 133 scenario.client[0].ppp[1].ppp.queue packetPushed:vector(packetBytes) ETV
attr interpolationmode none
attr title "packet pushed, vector(packetBytes)"
vector 134 scenario.client[0].ppp[1].ppp.queue queueLength:vector ETV
attr interpolationmode sample-hold
attr source "count(packetPushed) - count(packetPopped) - count(packetRemoved) - count(packetDropped)"
attr title "queue length, vector"
vector 135 scenario.client[0].ppp[1].ppp.queue packetPopped:vector(packetBytes) ETV
attr interpolationmode none
attr title "packet popped, vector(packetBytes)"
vector 136 scenario.client[0].ppp[1].ppp.queue queueingTime:vector ETV
attr interpolationmode none
attr source queueingTime(packetPopped)
attr title "queueing times, vector"
attr unit s
vector 137 scenario.client[0].ppp[1].ppp txPk:vector(packetBytes) ETV
attr interpolationmode none
attr source packetSentToLower
attr title "packets transmitted, vector(packetBytes)"
vector 138 scenario.client[2].ppp[0].ppp rxPkOk:vector(packetBytes) ETV
attr interpolationmode none
attr source rxPkOk
attr title "packets received OK, vector(packetBytes)"
vector 139 scenario.client[2].ppp[0].ppp passedUpPk:vector(packetBytes) ETV
attr interpolationmode none
attr source packetSentToUpper
attr title "packets passed to higher layer, vector(packetBytes)"
vector 140 scenario.client[2].tcp.conn-2 rcvSeq:vector ETV
attr interpolationmode sample-hold
vector 141 scenario.client[2].tcp.conn-2 rcvAck:vector ETV
attr interpolationmode sample-hold
vector 142 scenario.client[2].tcp.conn-69 rcvAdv:vector ETV
attr interpolationmode sample-hold
vector 143 scenario.client[2].tcp.conn-69 sndWnd:vector ETV
attr interpolationmode sample-hold
vector 144 scenario.client[2].tcp.conn-69 tcpRcvQueueBytes:vector ETV
attr interpolationmode sample-hold
vector 145 scenario.client[2].tcp.conn-69 rcvWnd:vector ETV
attr interpolationmode sample-hold
vector 146 scenario.client[2].tcp.conn-69 sndAck:vector ETV
attr interpolationmode sample-hold
vector 147 scenario.client[2].ppp[0].ppp rcvdPkFromHl:vector(packetBytes) ETV
attr interpolationmode none
attr source packetReceivedFromUpper
attr title "packets received from higher layer, vector(packetBytes)"
vector 148 scenario.client[2].ppp[0].ppp.queue packetPushed:vector(packetBytes) ETV
attr interpolationmode none
attr title "packet pushed, vector(packetBytes)"
vector 149 scenario.client[2].ppp[0].ppp.queue queueLength:vector ETV
attr interpolationmode sample-hold
attr source "count(packetPushed) - count(packetPopped) - count(packetRemoved) - count(packetDropped)"
attr title "queue length, vector"
vector 150 scenario.client[2].ppp[0].ppp.queue packetPopped:vector(packetBytes) ETV
attr interpolationmode none
attr title "packet popped, vector(packetBytes)"
vector 151 scenario.client[2].ppp[0].ppp.queue queueingTime:vector ETV
attr interpolationmode none
attr source queueingTime(packetPopped)
attr title "queueing times, vector"
attr unit s
vector 152 scenario.client[2].ppp[0].ppp txPk:vector(packetBytes) ETV
attr interpolationmode none
attr source packetSentToLower
attr title "packets transmitted, vector(packetBytes)"
vector 153 scenario.client[0].ppp[1].ppp rxPkOk:vector(packetBytes) ETV
attr interpolationmode none
attr source rxPkOk
attr title "packets received OK, vector(packetBytes)"
vector 154 scenario.client[0].ppp[1].ppp passedUpPk:vector(packetBytes) ETV
attr interpolationmode none
attr source packetSentToUpper
attr title "packets passed to higher layer, vector(packetBytes)"
vector 155 scenario.client[0].tcp.conn-68 rcvSeq:vector ETV
attr interpolationmode sample-hold
vector 156 scenario.client[0].tcp.conn-68 rcvAck:vector ETV
attr interpolationmode sample-hold
vector 157 scenario.client[0].tcp.conn-68 sndWnd:vector ETV
attr interpolationmode sample-hold
vector 158 scenario.client[0].tcp.conn-68 unacked:vector ETV
attr interpolationmode sample-hold
vector 159 scenario.client[2].tcp.conn-69 rcvSeq:vector ETV
attr interpolationmode sample-hold
vector 160 scenario.client[2].tcp.conn-69 rcvAck:vector ETV
attr interpolationmode sample-hold
vector 161 scenario.client[2].tcp.conn-69 unacked:vector ETV
attr interpolationmode sample-hold
vector 162 scenario.client[2].tcp.conn-69 cwnd:vector ETV
attr interpolationmode sample-hold
vector 163 scenario.client[2].tcp.conn-69 ssthresh:vector ETV
attr interpolationmode sample-hold
vector 164 scenario.client[2].tcp.conn-69 dupAcks:vector ETV
attr interpolationmode sample-hold
vector 165 scenario.client[2].tcp.conn-70 tcpRcvQueueBytes:vector ETV
attr interpolationmode sample-hold
vector 166 scenario.client[2].tcp.conn-70 rcvAdv:vector ETV
attr interpolationmode sample-hold
vector 167 scenario.client[2].tcp.conn-70 rcvWnd:vector ETV
attr interpolationmode sample-hold
vector 168 scenario.client[2].tcp.conn-70 sndAck:vector ETV
attr interpolationmode sample-hold
vector 169 scenario.client[0].tcp.conn-68 rtt:vector ETV
attr interpolationmode sample-hold
vector 170 scenario.client[0].tcp.conn-68 srtt:vector ETV
attr interpolationmode sample-hold
vector 171 scenario.client[0].tcp.conn-68 rttvar:vector ETV
attr interpolationmode sample-hold
vector 172 scenario.client[0].tcp.conn-68 rto:vector ETV
attr interpolationmode sample-hold
vector 173 scenario.client[0].tcp.conn-68 cwnd:vector ETV
attr interpolationmode sample-hold
vector 174 scenario.client[0].tcp.conn-68 ssthresh:vector ETV
attr interpolationmode sample-hold
vector 175 scenario.client[0].tcp.conn-68 dupAcks:vector ETV
attr interpolationmode sample-hold
vector 176 scenario.client[0].tcp.conn-71 rcvAdv:vector ETV
attr interpolationmode sample-hold
vector 177 scenario.client[0].tcp.conn-71 sndWnd:vector ETV
attr interpolationmode sample-hold
vector 178 scenario.client[0].tcp.conn-71 tcpRcvQueueBytes:vector ETV
attr interpolationmode sample-hold
vector 179 scenario.client[0].tcp.conn-71 rcvWnd:vector ETV
attr interpolationmode sample-hold
vector 180 scenario.client[0].tcp.conn-71 sndAck:vector ETV
attr interpolationmode sample-hold
vector 181 scenario.client[2].tcp.conn-70 rcvSeq:vector ETV
attr interpolationmode sample-hold
vector 182 scenario.client[2].tcp.conn-70 rcvAck:vector ETV
attr interpolationmode sample-hold
vector 183 scenario.client[2].tcp.conn-70 sndWnd:vector ETV
attr interpolationmode sample-hold
vector 184 scenario.client[2].tcp.conn-70 unacked:vector ETV
attr interpolationmode sample-hold
vector 185 scenario.client[0].tcp.conn-71 rcvSeq:vector ETV
attr interpolationmode sample-hold
vector 186 scenario.client[0].tcp.conn-71 rcvAck:vector ETV
attr interpolationmode sample-hold
vector 187 scenario.client[0].tcp.conn-71 unacked:vector ETV
attr interpolationmode sample-hold
vector 188 scenario.client[0].tcp.conn-71 cwnd:vector ETV
attr interpolationmode sample-hold
vector 189 scenario.client[0].tcp.conn-71 ssthresh:vector ETV
attr interpolationmode sample-hold
vector 190 scenario.client[0].tcp.conn-71 dupAcks:vector ETV
attr interpolationmode sample-hold
vector 191 scenario.client[2].tcp.conn-70 rtt:vector ETV
attr interpolationmode sample-hold
vector 192 scenario.client[2].tcp.conn-70 srtt:vector ETV
attr interpolationmode sample-hold
vector 193 scenario.client[2].tcp.conn-70 rttvar:vector ETV
attr interpolationmode sample-hold
vector 194 scenario.client[2].tcp.conn-70 rto:vector ETV
attr interpolationmode sample-hold
vector 195 scenario.client[2].tcp.conn-70 cwnd:vector ETV
attr interpolationmode sample-hold
vector 196 scenario.client[2].tcp.conn-70 ssthresh:vector ETV
attr interpolationmode sample-hold
vector 197 scenario.client[2].tcp.conn-70 dupAcks:vector ETV
attr interpolationmode sample-hold
vector 198 scenario.client[5].tcp.conn-72 tcpRcvQueueBytes:vector ETV
attr interpolationmode sample-hold
vector 199 scenario.client[5].tcp.conn-72 rcvAdv:vector ETV
attr interpolationmode sample-hold
vector 200 scenario.client[5].tcp.conn-72 rcvWnd:vector ETV
attr interpolationmode sample-hold
vector 201 scenario.client[5].tcp.conn-72 sndAck:vector ETV
attr interpolationmode sample-hold
vector 202 scenario.client[5].ppp[0].ppp rcvdPkFromHl:vector(packetBytes) ETV
attr interpolationmode none
attr source packetReceivedFromUpper
attr title "packets received from higher layer, vector(packetBytes)"
vector 203 scenario.client[5].ppp[0].ppp.queue packetPushed:vector(packetBytes) ETV
attr interpolationmode none
attr title "packet pushed, vector(packetBytes)"
vector 204 scenario.client[5].ppp[0].ppp.queue queueLength:vector ETV
attr interpolationmode sample-hold
attr source "count(packetPushed) - count(packetPopped) - count(packetRemoved) - count(packetDropped)"
attr title "queue length, vector"
vector 205 scenario.client[5].ppp[0].ppp.queue packetPopped:vector(packetBytes) ETV
attr interpolationmode none
attr title "packet popped, vector(packetBytes)"
vector 206 scenario.client[5].ppp[0].ppp.queue queueingTime:vector ETV
attr interpolationmode none
attr source queueingTime(packetPopped)
attr title "queueing times, vector"
attr unit s
vector 207 scenario.client[5].ppp[0].ppp txPk:vector(packetBytes) ETV
attr interpolationmode none
attr source packetSentToLower
attr title "packets transmitted, vector(packetBytes)"
vector 208 scenario.client[0].ppp[4].ppp rxPkOk:vector(packetBytes) ETV
attr interpolationmode none
attr source rxPkOk
attr title "packets received OK, vector(packetBytes)"
vector 209 scenario.client[0].ppp[4].ppp passedUpPk:vector(packetBytes) ETV
attr interpolationmode none
attr source packetSentToUpper
attr title "packets passed to higher layer, vector(packetBytes)"
vector 210 scenario.client[0].tcp.conn-73 rcvAdv:vector ETV
attr interpolationmode sample-hold
vector 211 scenario.client[0].tcp.conn-73 sndWnd:vector ETV
attr interpolationmode sample-hold
vector 212 scenario.client[0].tcp.conn-73 tcpRcvQueueBytes:vector ETV
attr interpolationmode sample-hold
vector 213 scenario.client[0].tcp.conn-73 rcvWnd:vector ETV
attr interpolationmode sample-hold
vector 214 scenario.client[0].tcp.conn-73 sndAck:vector ETV
attr interpolationmode sample-hold
vector 215 scenario.client[0].ppp[4].ppp rcvdPkFromHl:vector(packetBytes) ETV
attr interpolationmode none
attr source packetReceivedFromUpper
attr title "packets received from higher layer, vector(packetBytes)"
vector 216 scenario.client[0].ppp[4].ppp.queue packetPushed:vector(packetBytes) ETV
attr interpolationmode none
attr title "packet pushed, vector(packetBytes)"
vector 217 scenario.client[0].ppp[4].ppp.queue queueLength:vector ETV
attr interpolationmode sample-hold
attr source "count(packetPushed) - count(packetPopped) - count(packetRemoved) - count(packetDropped)"
attr title "queue length, vector"
vector 218 scenario.client[0].ppp[4].ppp.queue packetPopped:vector(packetBytes) ETV
attr interpolationmode none
attr title "packet popped, vector(packetBytes)"
vector 219 scenario.client[0].ppp[4].ppp.queue queueingTime:vector ETV
attr interpolationmode none
attr source queueingTime(packetPopped)
attr title "queueing times, vector"
attr unit s
vector 220 scenario.client[0].ppp[4].ppp txPk:vector(packetBytes) ETV
attr interpolationmode none
attr source packetSentToLower
attr title "packets transmitted, vector(packetBytes)"
vector 221 scenario.client[5].ppp[0].ppp rxPkOk:vector(packetBytes) ETV
attr interpolationmode none
attr source rxPkOk
attr title "packets received OK, vector(packetBytes)"
vector 222 scenario.client[5].ppp[0].ppp passedUpPk:vector(packetBytes) ETV
attr interpolationmode none
attr source packetSentToUpper
attr title "packets passed to higher layer, vector(packetBytes)"
vector 223 scenario.client[5].tcp.conn-72 rcvSeq:vector ETV
attr interpolationmode sample-hold
vector 224 scenario.client[5].tcp.conn-72 rcvAck:vector ETV
attr interpolationmode sample-hold
vector 225 scenario.client[5].tcp.conn-72 sndWnd:vector ETV
attr interpolationmode sample-hold
vector 226 scenario.client[5].tcp.conn-72 unacked:vector ETV
attr interpolationmode sample-hold
vector 227 scenario.client[0].tcp.conn-73 rcvSeq:vector ETV
attr interpolationmode sample-hold
vector 228 scenario.client[0].tcp.conn-73 rcvAck:vector ETV
attr interpolationmode sample-hold
vector 229 scenario.client[0].tcp.conn-73 unacked:vector ETV
attr interpolationmode sample-hold
vector 230 scenario.client[0].tcp.conn-73 cwnd:vector ETV
attr interpolationmode sample-hold
vector 231 scenario.client[0].tcp.conn-73 ssthresh:vector ETV
attr interpolationmode sample-hold
vector 232 scenario.client[0].tcp.conn-73 dupAcks:vector ETV
attr interpolationmode sample-hold
vector 233 scenario.client[5].tcp.conn-72 rtt:vector ETV
attr interpolationmode sample-hold
vector 234 scenario.client[5].tcp.conn-72 srtt:vector ETV
attr interpolationmode sample-hold
vector 235 scenario.client[5].tcp.conn-72 rttvar:vector ETV
attr interpolationmode sample-hold
vector 236 scenario.client[5].tcp.conn-72 rto:vector ETV
attr interpolationmode sample-hold
vector 237 scenario.client[5].tcp.conn-72 cwnd:vector ETV
attr interpolationmode sample-hold
vector 238 scenario.client[5].tcp.conn-72 ssthresh:vector ETV
attr interpolationmode sample-hold
vector 239 scenario.client[5].tcp.conn-72 dupAcks:vector ETV
attr interpolationmode sample-hold
vector 240 scenario.client[0].tcp.conn-74 tcpRcvQueueBytes:vector ETV
attr interpolationmode sample-hold
vector 241 scenario.client[0].tcp.conn-74 rcvAdv:vector ETV
attr interpolationmode sample-hold
vector 242 scenario.client[0].tcp.conn-74 rcvWnd:vector ETV
attr interpolationmode sample-hold
vector 243 scenario.client[0].tcp.conn-74 sndAck:vector ETV
attr interpolationmode sample-hold
vector 244 scenario.client[0].ppp[2].ppp rcvdPkFromHl:vector(packetBytes) ETV
attr interpolationmode none
attr source packetReceivedFromUpper
attr title "packets received from higher layer, vector(packetBytes)"
vector 245 scenario.client[0].ppp[2].ppp.queue packetPushed:vector(packetBytes) ETV
attr interpolationmode none
attr title "packet pushed, vector(packetBytes)"
vector 246 scenario.client[0].ppp[2].ppp.queue queueLength:vector ETV
attr interpolationmode sample-hold
attr source "count(packetPushed) - count(packetPopped) - count(packetRemoved) - count(packetDropped)"
attr title "queue length, vector"
vector 247 scenario.client[0].ppp[2].ppp.queue packetPopped:vector(packetBytes) ETV
attr interpolationmode none
attr title "packet popped, vector(packetBytes)"
vector 248 scenario.client[0].ppp[2].ppp.queue queueingTime:vector ETV
attr interpolationmode none
attr source queueingTime(packetPopped)
attr title "queueing times, vector"
attr unit s
vector 249 scenario.client[0].ppp[2].ppp txPk:vector(packetBytes) ETV
attr interpolationmode none
attr source packetSentToLower
attr title "packets transmitted, vector(packetBytes)"
vector 250 scenario.client[3].ppp[0].ppp rxPkOk:vector(packetBytes) ETV
attr interpolationmode none
attr source rxPkOk
attr title "packets received OK, vector(packetBytes)"
vector 251 scenario.client[3].ppp[0].ppp passedUpPk:vector(packetBytes) ETV
attr interpolationmode none
attr source packetSentToUpper
attr title "packets passed to higher layer, vector(packetBytes)"
vector 252 scenario.client[3].tcp.conn-3 rcvSeq:vector ETV
attr interpolationmode sample-hold
vector 253 scenario.client[3].tcp.conn-3 rcvAck:vector ETV
attr interpolationmode sample-hold
vector 254 scenario.client[3].tcp.conn-75 rcvAdv:vector ETV
attr interpolationmode sample-hold
vector 255 scenario.client[3].tcp.conn-75 sndWnd:vector ETV
attr interpolationmode sample-hold
vector 256 scenario.client[3].tcp.conn-75 tcpRcvQueueBytes:vector ETV
attr interpolationmode sample-hold
vector 257 scenario.client[3].tcp.conn-75 rcvWnd:vector ETV
attr interpolationmode sample-hold
vector 258 scenario.client[3].tcp.conn-75 sndAck:vector ETV
attr interpolationmode sample-hold
vector 259 scenario.client[3].ppp[0].ppp rcvdPkFromHl:vector(packetBytes) ETV
attr interpolationmode none
attr source packetReceivedFromUpper
attr title "packets received from higher layer, vector(packetBytes)"
vector 260 scenario.client[3].ppp[0].ppp.queue packetPushed:vector(packetBytes) ETV
attr interpolationmode none
attr title "packet pushed, vector(packetBytes)"
vector 261 scenario.client[3].ppp[0].ppp.queue queueLength:vector ETV
attr interpolationmode sample-hold
attr source "count(packetPushed) - count(packetPopped) - count(packetRemoved) - count(packetDropped)"
attr title "queue length, vector"
vector 262 scenario.client[3].ppp[0].ppp.queue packetPopped:vector(packetBytes) ETV
attr interpolationmode none
attr title "packet popped, vector(packetBytes)"
vector 263 scenario.client[3].ppp[0].ppp.queue queueingTime:vector ETV
attr interpolationmode none
attr source queueingTime(packetPopped)
attr title "queueing times, vector"
attr unit s
vector 264 scenario.client[3].ppp[0].ppp txPk:vector(packetBytes) ETV
attr interpolationmode none
attr source packetSentToLower
attr title "packets transmitted, vector(packetBytes)"
vector 265 scenario.client[0].ppp[2].ppp rxPkOk:vector(packetBytes) ETV
attr interpolationmode none
attr source rxPkOk
attr title "packets received OK, vector(packetBytes)"
vector 266 scenario.client[0].ppp[2].ppp passedUpPk:vector(packetBytes) ETV
attr interpolationmode none
attr source packetSentToUpper
attr title "packets passed to higher layer, vector(packetBytes)"
vector 267 scenario.client[0].tcp.conn-74 rcvSeq:vector ETV
attr interpolationmode sample-hold
vector 268 scenario.client[0].tcp.conn-74 rcvAck:vector ETV
attr interpolationmode sample-hold
vector 269 scenario.client[0].tcp.conn-74 sndWnd:vector ETV
attr interpolationmode sample-hold
vector 270 scenario.client[0].tcp.conn-74 unacked:vector ETV
attr interpolationmode sample-hold
vector 271 scenario.client[3].tcp.conn-75 rcvSeq:vector ETV
attr interpolationmode sample-hold
vector 272 scenario.client[3].tcp.conn-75 rcvAck:vector ETV
attr interpolationmode sample-hold
vector 273 scenario.client[3].tcp.conn-75 unacked:vector ETV
attr interpolationmode sample-hold
vector 274 scenario.client[3].tcp.conn-75 cwnd:vector ETV
attr interpolationmode sample-hold
vector 275 scenario.client[3].tcp.conn-75 ssthresh:vector ETV
attr interpolationmode sample-hold
vector 276 scenario.client[3].tcp.conn-75 dupAcks:vector ETV
attr interpolationmode sample-hold
vector 277 scenario.client[3].tcp.conn-76 tcpRcvQueueBytes:vector ETV
attr interpolationmode sample-hold
vector 278 scenario.client[3].tcp.conn-76 rcvAdv:vector ETV
attr interpolationmode sample-hold
vector 279 scenario.client[3].tcp.conn-76 rcvWnd:vector ETV
attr interpolationmode sample-hold
vector 280 scenario.client[3].tcp.conn-76 sndAck:vector ETV
attr interpolationmode sample-hold
vector 281 scenario.client[0].tcp.conn-74 rtt:vector ETV
attr interpolationmode sample-hold
vector 282 scenario.client[0].tcp.conn-74 srtt:vector ETV
attr interpolationmode sample-hold
vector 283 scenario.client[0].tcp.conn-74 rttvar:vector ETV
attr interpolationmode sample-hold
vector 284 scenario.client[0].tcp.conn-74 rto:vector ETV
attr interpolationmode sample-hold
vector 285 scenario.client[0].tcp.conn-74 cwnd:vector ETV
attr interpolationmode sample-hold
vector 286 scenario.client[0].tcp.conn-74 ssthresh:vector ETV
attr interpolationmode sample-hold
vector 287 scenario.client[0].tcp.conn-74 dupAcks:vector ETV
attr interpolationmode sample-hold
vector 288 scenario.client[0].tcp.conn-77 rcvAdv:vector ETV
attr interpolationmode sample-hold
vector 289 scenario.client[0].tcp.conn-77 sndWnd:vector ETV
attr interpolationmode sample-hold
vector 290 scenario.client[0].tcp.conn-77 tcpRcvQueueBytes:vector ETV
attr interpolationmode sample-hold
vector 291 scenario.client[0].tcp.conn-77 rcvWnd:vector ETV
attr interpolationmode sample-hold
vector 292 scenario.client[0].tcp.conn-77 sndAck:vector ETV
attr interpolationmode sample-hold
vector 293 scenario.client[3].tcp.conn-76 rcvSeq:vector ETV
attr interpolationmode sample-hold
vector 294 scenario.client[3].tcp.conn-76 rcvAck:vector ETV
attr interpolationmode sample-hold
vector 295 scenario.client[3].tcp.conn-76 sndWnd:vector ETV
attr interpolationmode sample-hold
vector 296 scenario.client[3].tcp.conn-76 unacked:vector ETV
attr interpolationmode sample-hold
vector 297 scenario.client[0].tcp.conn-77 rcvSeq:vector ETV
attr interpolationmode sample-hold
vector 298 scenario.client[0].tcp.conn-77 rcvAck:vector ETV
attr interpolationmode sample-hold
vector 299 scenario.client[0].tcp.conn-77 unacked:vector ETV
attr interpolationmode sample-hold
vector 300 scenario.client[0].tcp.conn-77 cwnd:vector ETV
attr interpolationmode sample-hold
vector 301 scenario.client[0].tcp.conn-77 ssthresh:vector ETV
attr interpolationmode sample-hold
vector 302 scenario.client[0].tcp.conn-77 dupAcks:vector ETV
attr interpolationmode sample-hold
vector 303 scenario.client[3].tcp.conn-76 rtt:vector ETV
attr interpolationmode sample-hold
vector 304 scenario.client[3].tcp.conn-76 srtt:vector ETV
attr interpolationmode sample-hold
vector 305 scenario.client[3].tcp.conn-76 rttvar:vector ETV
attr interpolationmode sample-hold
vector 306 scenario.client[3].tcp.conn-76 rto:vector ETV
attr interpolationmode sample-hold
vector 307 scenario.client[3].tcp.conn-76 cwnd:vector ETV
attr interpolationmode sample-hold
vector 308 scenario.client[3].tcp.conn-76 ssthresh:vector ETV
attr interpolationmode sample-hold
vector 309 scenario.client[3].tcp.conn-76 dupAcks:vector ETV
attr interpolationmode sample-hold
vector 310 scenario.client[5].tcp.conn-78 tcpRcvQueueBytes:vector ETV
attr interpolationmode sample-hold
vector 311 scenario.client[5].tcp.conn-78 rcvAdv:vector ETV
attr interpolationmode sample-hold
vector 312 scenario.client[5].tcp.conn-78 rcvWnd:vector ETV
attr interpolationmode sample-hold
vector 313 scenario.client[5].tcp.conn-78 sndAck:vector ETV
attr interpolationmode sample-hold
vector 314 scenario.client[5].ppp[1].ppp rcvdPkFromHl:vector(packetBytes) ETV
attr interpolationmode none
attr source packetReceivedFromUpper
attr title "packets received from higher layer, vector(packetBytes)"
vector 315 scenario.client[5].ppp[1].ppp.queue packetPushed:vector(packetBytes) ETV
attr interpolationmode none
attr title "packet pushed, vector(packetBytes)"
vector 316 scenario.client[5].ppp[1].ppp.queue queueLength:vector ETV
attr interpolationmode sample-hold
attr source "count(packetPushed) - count(packetPopped) - count(packetRemoved) - count(packetDropped)"
attr title "queue length, vector"
vector 317 scenario.client[5].ppp[1].ppp.queue packetPopped:vector(packetBytes) ETV
attr interpolationmode none
attr title "packet popped, vector(packetBytes)"
vector 318 scenario.client[5].ppp[1].ppp.queue queueingTime:vector ETV
attr interpolationmode none
attr source queueingTime(packetPopped)
attr title "queueing times, vector"
attr unit s
vector 319 scenario.client[5].ppp[1].ppp txPk:vector(packetBytes) ETV
attr interpolationmode none
attr source packetSentToLower
attr title "packets transmitted, vector(packetBytes)"
vector 320 scenario.client[1].ppp[4].ppp rxPkOk:vector(packetBytes) ETV
attr interpolationmode none
attr source rxPkOk
attr title "packets received OK, vector(packetBytes)"
vector 321 scenario.client[1].ppp[4].ppp passedUpPk:vector(packetBytes) ETV
attr interpolationmode none
attr source packetSentToUpper
attr title "packets passed to higher layer, vector(packetBytes)"
vector 322 scenario.client[1].tcp.conn-79 rcvAdv:vector ETV
attr interpolationmode sample-hold
vector 323 scenario.client[1].tcp.conn-79 sndWnd:vector ETV
attr interpolationmode sample-hold
vector 324 scenario.client[1].tcp.conn-79 tcpRcvQueueBytes:vector ETV
attr interpolationmode sample-hold
vector 325 scenario.client[1].tcp.conn-79 rcvWnd:vector ETV
attr interpolationmode sample-hold
vector 326 scenario.client[1].tcp.conn-79 sndAck:vector ETV
attr interpolationmode sample-hold
vector 327 scenario.client[1].ppp[4].ppp rcvdPkFromHl:vector(packetBytes) ETV
attr interpolationmode none
attr source packetReceivedFromUpper
attr title "packets received from higher layer, vector(packetBytes)"
vector 328 scenario.client[1].ppp[4].ppp.queue packetPushed:vector(packetBytes) ETV
attr interpolationmode none
attr title "packet pushed, vector(packetBytes)"
vector 329 scenario.client[1].ppp[4].ppp.queue queueLength:vector ETV
attr interpolationmode sample-hold
attr source "count(packetPushed) - count(packetPopped) - count(packetRemoved) - count(packetDropped)"
attr title "queue length, vector"
vector 330 scenario.client[1].ppp[4].ppp.queue packetPopped:vector(packetBytes) ETV
attr interpolationmode none
attr title "packet popped, vector(packetBytes)"
vector 331 scenario.client[1].ppp[4].ppp.queue queueingTime:vector ETV
attr interpolationmode none
attr source queueingTime(packetPopped)
attr title "queueing times, vector"
attr unit s
vector 332 scenario.client[1].ppp[4].ppp txPk:vector(packetBytes) ETV
attr interpolationmode none
attr source packetSentToLower
attr title "packets transmitted, vector(packetBytes)"
vector 333 scenario.client[5].ppp[1].ppp rxPkOk:vector(packetBytes) ETV
attr interpolationmode none
attr source rxPkOk
attr title "packets received OK, vector(packetBytes)"
vector 334 scenario.client[5].ppp[1].ppp passedUpPk:vector(packetBytes) ETV
attr interpolationmode none
attr source packetSentToUpper
attr title "packets passed to higher layer, vector(packetBytes)"
vector 335 scenario.client[5].tcp.conn-78 rcvSeq:vector ETV
attr interpolationmode sample-hold
vector 336 scenario.client[5].tcp.conn-78 rcvAck:vector ETV
attr interpolationmode sample-hold
vector 337 scenario.client[5].tcp.conn-78 sndWnd:vector ETV
attr interpolationmode sample-hold
vector 338 scenario.client[5].tcp.conn-78 unacked:vector ETV
attr interpolationmode sample-hold
vector 339 scenario.client[1].tcp.conn-79 rcvSeq:vector ETV
attr interpolationmode sample-hold
vector 340 scenario.client[1].tcp.conn-79 rcvAck:vector ETV
attr interpolationmode sample-hold
vector 341 scenario.client[1].tcp.conn-79 unacked:vector ETV
attr interpolationmode sample-hold
vector 342 scenario.client[1].tcp.conn-79 cwnd:vector ETV
attr interpolationmode sample-hold
vector 343 scenario.client[1].tcp.conn-79 ssthresh:vector ETV
attr interpolationmode sample-hold
vector 344 scenario.client[1].tcp.conn-79 dupAcks:vector ETV
attr interpolationmode sample-hold
vector 345 scenario.client[5].tcp.conn-78 rtt:vector ETV
attr interpolationmode sample-hold
vector 346 scenario.client[5].tcp.conn-78 srtt:vector ETV
attr interpolationmode sample-hold
vector 347 scenario.client[5].tcp.conn-78 rttvar:vector ETV
attr interpolationmode sample-hold
vector 348 scenario.client[5].tcp.conn-78 rto:vector ETV
attr interpolationmode sample-hold
vector 349 scenario.client[5].tcp.conn-78 cwnd:vector ETV
attr interpolationmode sample-hold
vector 350 scenario.client[5].tcp.conn-78 ssthresh:vector ETV
attr interpolationmode sample-hold
vector 351 scenario.client[5].tcp.conn-78 dupAcks:vector ETV
attr interpolationmode sample-hold
vector 352 scenario.client[0].tcp.conn-80 tcpRcvQueueBytes:vector ETV
attr interpolationmode sample-hold
vector 353 scenario.client[0].tcp.conn-80 rcvAdv:vector ETV
attr interpolationmode sample-hold
vector 354 scenario.client[0].tcp.conn-80 rcvWnd:vector ETV
attr interpolationmode sample-hold
vector 355 scenario.client[0].tcp.conn-80 sndAck:vector ETV
attr interpolationmode sample-hold
vector 356 scenario.client[0].ppp[3].ppp rcvdPkFromHl:vector(packetBytes) ETV
attr interpolationmode none
attr source packetReceivedFromUpper
attr title "packets received from higher layer, vector(packetBytes)"
vector 357 scenario.client[0].ppp[3].ppp.queue packetPushed:vector(packetBytes) ETV
attr interpolationmode none
attr title "packet pushed, vector(packetBytes)"
vector 358 scenario.client[0].ppp[3].ppp.queue queueLength:vector ETV
attr interpolationmode sample-hold
attr source "count(packetPushed) - count(packetPopped) - count(packetRemoved) - count(packetDropped)"
attr title "queue length, vector"
vector 359 scenario.client[0].ppp[3].ppp.queue packetPopped:vector(packetBytes) ETV
attr interpolationmode none
attr title "packet popped, vector(packetBytes)"
vector 360 scenario.client[0].ppp[3].ppp.queue queueingTime:vector ETV
attr interpolationmode none
attr source queueingTime(packetPopped)
attr title "queueing times, vector"
attr unit s
vector 361 scenario.client[0].ppp[3].ppp txPk:vector(packetBytes) ETV
attr interpolationmode none
attr source packetSentToLower
attr title "packets transmitted, vector(packetBytes)"
vector 362 scenario.client[4].ppp[0].ppp rxPkOk:vector(packetBytes) ETV
attr interpolationmode none
attr source rxPkOk
attr title "packets received OK, vector(packetBytes)"
vector 363 scenario.client[4].ppp[0].ppp passedUpPk:vector(packetBytes) ETV
attr interpolationmode none
attr source packetSentToUpper
attr title "packets passed to higher layer, vector(packetBytes)"
vector 364 scenario.client[4].tcp.conn-4 rcvSeq:vector ETV
attr interpolationmode sample-hold
vector 365 scenario.client[4].tcp.conn-4 rcvAck:vector ETV
attr interpolationmode sample-hold
vector 366 scenario.client[4].tcp.conn-81 rcvAdv:vector ETV
attr interpolationmode sample-hold
vector 367 scenario.client[4].tcp.conn-81 sndWnd:vector ETV
attr interpolationmode sample-hold
vector 368 scenario.client[4].tcp.conn-81 tcpRcvQueueBytes:vector ETV
attr interpolationmode sample-hold
vector 369 scenario.client[4].tcp.conn-81 rcvWnd:vector ETV
attr interpolationmode sample-hold
vector 370 scenario.client[4].tcp.conn-81 sndAck:vector ETV
attr interpolationmode sample-hold
vector 371 scenario.client[4].ppp[0].ppp rcvdPkFromHl:vector(packetBytes) ETV
attr interpolationmode none
attr source packetReceivedFromUpper
attr title "packets received from higher layer, vector(packetBytes)"
vector 372 scenario.client[4].ppp[0].ppp.queue packetPushed:vector(packetBytes) ETV
attr interpolationmode none
attr title "packet pushed, vector(packetBytes)"
vector 373 scenario.client[4].ppp[0].ppp.queue queueLength:vector ETV
attr interpolationmode sample-hold
attr source "count(packetPushed) - count(packetPopped) - count(packetRemoved) - count(packetDropped)"
attr title "queue length, vector"
vector 374 scenario.client[4].ppp[0].ppp.queue packetPopped:vector(packetBytes) ETV
attr interpolationmode none
attr title "packet popped, vector(packetBytes)"
vector 375 scenario.client[4].ppp[0].ppp.queue queueingTime:vector ETV
attr interpolationmode none
attr source queueingTime(packetPopped)
attr title "queueing times, vector"
attr unit s
vector 376 scenario.client[4].ppp[0].ppp txPk:vector(packetBytes) ETV
attr interpolationmode none
attr source packetSentToLower
attr title "packets transmitted, vector(packetBytes)"
vector 377 scenario.client[0].ppp[3].ppp rxPkOk:vector(packetBytes) ETV
attr interpolationmode none
attr source rxPkOk
attr title "packets received OK, vector(packetBytes)"
vector 378 scenario.client[0].ppp[3].ppp passedUpPk:vector(packetBytes) ETV
attr interpolationmode none
attr source packetSentToUpper
attr title "packets passed to higher layer, vector(packetBytes)"
vector 379 scenario.client[0].tcp.conn-80 rcvSeq:vector ETV
attr interpolationmode sample-hold
vector 380 scenario.client[0].tcp.conn-80 rcvAck:vector ETV
attr interpolationmode sample-hold
vector 381 scenario.client[0].tcp.conn-80 sndWnd:vector ETV
attr interpolationmode sample-hold
vector 382 scenario.client[0].tcp.conn-80 unacked:vector ETV
attr interpolationmode sample-hold
vector 383 scenario.client[4].tcp.conn-81 rcvSeq:vector ETV
attr interpolationmode sample-hold
vector 384 scenario.client[4].tcp.conn-81 rcvAck:vector ETV
attr interpolationmode sample-hold
vector 385 scenario.client[4].tcp.conn-81 unacked:vector ETV
attr interpolationmode sample-hold
vector 386 scenario.client[4].tcp.conn-81 cwnd:vector ETV
attr interpolationmode sample-hold
vector 387 scenario.client[4].tcp.conn-81 ssthresh:vector ETV
attr interpolationmode sample-hold
vector 388 scenario.client[4].tcp.conn-81 dupAcks:vector ETV
attr interpolationmode sample-hold
vector 389 scenario.client[4].tcp.conn-82 tcpRcvQueueBytes:vector ETV
attr interpolationmode sample-hold
vector 390 scenario.client[4].tcp.conn-82 rcvAdv:vector ETV
attr interpolationmode sample-hold
vector 391 scenario.client[4].tcp.conn-82 rcvWnd:vector ETV
attr interpolationmode sample-hold
vector 392 scenario.client[4].tcp.conn-82 sndAck:vector ETV
attr interpolationmode sample-hold
vector 393 scenario.client[0].tcp.conn-80 rtt:vector ETV
attr interpolationmode sample-hold
vector 394 scenario.client[0].tcp.conn-80 srtt:vector ETV
attr interpolationmode sample-hold
vector 395 scenario.client[0].tcp.conn-80 rttvar:vector ETV
attr interpolationmode sample-hold
vector 396 scenario.client[0].tcp.conn-80 rto:vector ETV
attr interpolationmode sample-hold
vector 397 scenario.client[0].tcp.conn-80 cwnd:vector ETV
attr interpolationmode sample-hold
vector 398 scenario.client[0].tcp.conn-80 ssthresh:vector ETV
attr interpolationmode sample-hold
vector 399 scenario.client[0].tcp.conn-80 dupAcks:vector ETV
attr interpolationmode sample-hold
vector 400 scenario.client[0].tcp.conn-83 rcvAdv:vector ETV
attr interpolationmode sample-hold
vector 401 scenario.client[0].tcp.conn-83 sndWnd:vector ETV
attr interpolationmode sample-hold
vector 402 scenario.client[0].tcp.conn-83 tcpRcvQueueBytes:vector ETV
attr interpolationmode sample-hold
vector 403 scenario.client[0].tcp.conn-83 rcvWnd:vector ETV
attr interpolationmode sample-hold
vector 404 scenario.client[0].tcp.conn-83 sndAck:vector ETV
attr interpolationmode sample-hold
vector 405 scenario.client[4].tcp.conn-82 rcvSeq:vector ETV
attr interpolationmode sample-hold
vector 406 scenario.client[4].tcp.conn-82 rcvAck:vector ETV
attr interpolationmode sample-hold
vector 407 scenario.client[4].tcp.conn-82 sndWnd:vector ETV
attr interpolationmode sample-hold
vector 408 scenario.client[4].tcp.conn-82 unacked:vector ETV
attr interpolationmode sample-hold
vector 409 scenario.client[0].tcp.conn-83 rcvSeq:vector ETV
attr interpolationmode sample-hold
vector 410 scenario.client[0].tcp.conn-83 rcvAck:vector ETV
attr interpolationmode sample-hold
vector 411 scenario.client[0].tcp.conn-83 unacked:vector ETV
attr interpolationmode sample-hold
vector 412 scenario.client[0].tcp.conn-83 cwnd:vector ETV
attr interpolationmode sample-hold
vector 413 scenario.client[0].tcp.conn-83 ssthresh:vector ETV
attr interpolationmode sample-hold
vector 414 scenario.client[0].tcp.conn-83 dupAcks:vector ETV
attr interpolationmode sample-hold
vector 415 scenario.client[4].tcp.conn-82 rtt:vector ETV
attr interpolationmode sample-hold
vector 416 scenario.client[4].tcp.conn-82 srtt:vector ETV
attr interpolationmode sample-hold
vector 417 scenario.client[4].tcp.conn-82 rttvar:vector ETV
attr interpolationmode sample-hold
vector 418 scenario.client[4].tcp.conn-82 rto:vector ETV
attr interpolationmode sample-hold
vector 419 scenario.client[4].tcp.conn-82 cwnd:vector ETV
attr interpolationmode sample-hold
vector 420 scenario.client[4].tcp.conn-82 ssthresh:vector ETV
attr interpolationmode sample-hold
vector 421 scenario.client[4].tcp.conn-82 dupAcks:vector ETV
attr interpolationmode sample-hold
vector 422 scenario.client[5].tcp.conn-84 tcpRcvQueueBytes:vector ETV
attr interpolationmode sample-hold
vector 423 scenario.client[5].tcp.conn-84 rcvAdv:vector ETV
attr interpolationmode sample-hold
vector 424 scenario.client[5].tcp.conn-84 rcvWnd:vector ETV
attr interpolationmode sample-hold
vector 425 scenario.client[5].tcp.conn-84 sndAck:vector ETV
attr interpolationmode sample-hold
vector 426 scenario.client[5].ppp[2].ppp rcvdPkFromHl:vector(packetBytes) ETV
attr interpolationmode none
attr source packetReceivedFromUpper
attr title "packets received from higher layer, vector(packetBytes)"
vector 427 scenario.client[5].ppp[2].ppp.queue packetPushed:vector(packetBytes) ETV
attr interpolationmode none
attr title "packet pushed, vector(packetBytes)"
vector 428 scenario.client[5].ppp[2].ppp.queue queueLength:vector ETV
attr interpolationmode sample-hold
attr source "count(packetPushed) - count(packetPopped) - count(packetRemoved) - count(packetDropped)"
attr title "queue length, vector"
vector 429 scenario.client[5].ppp[2].ppp.queue packetPopped:vector(packetBytes) ETV
attr interpolationmode none
attr title "packet popped, vector(packetBytes)"
vector 430 scenario.client[5].ppp[2].ppp.queue queueingTime:vector ETV
attr interpolationmode none
attr source queueingTime(packetPopped)
attr title "queueing times, vector"
attr unit s
vector 431 scenario.client[5].ppp[2].ppp txPk:vector(packetBytes) ETV
attr interpolationmode none
attr source packetSentToLower
attr title "packets transmitted, vector(packetBytes)"
vector 432 scenario.client[2].ppp[4].ppp rxPkOk:vector(packetBytes) ETV
attr interpolationmode none
attr source rxPkOk
attr title "packets received OK, vector(packetBytes)"
vector 433 scenario.client[2].ppp[4].ppp passedUpPk:vector(packetBytes) ETV
attr interpolationmode none
attr source packetSentToUpper
attr title "packets passed to higher layer, vector(packetBytes)"
vector 434 scenario.client[2].tcp.conn-85 rcvAdv:vector ETV
attr interpolationmode sample-hold
vector 435 scenario.client[2].tcp.conn-85 sndWnd:vector ETV
attr interpolationmode sample-hold
vector 436 scenario.client[2].tcp.conn-85 tcpRcvQueueBytes:vector ETV
attr interpolationmode sample-hold
vector 437 scenario.client[2].tcp.conn-85 rcvWnd:vector ETV
attr interpolationmode sample-hold
vector 438 scenario.client[2].tcp.conn-85 sndAck:vector ETV
attr interpolationmode sample-hold
vector 439 scenario.client[2].ppp[4].ppp rcvdPkFromHl:vector(packetBytes) ETV
attr interpolationmode none
attr source packetReceivedFromUpper
attr title "packets received from higher layer, vector(packetBytes)"
vector 440 scenario.client[2].ppp[4].ppp.queue packetPushed:vector(packetBytes) ETV
attr interpolationmode none
attr title "packet pushed, vector(packetBytes)"
vector 441 scenario.client[2].ppp[4].ppp.queue queueLength:vector ETV
attr interpolationmode sample-hold
attr source "count(packetPushed) - count(packetPopped) - count(packetRemoved) - count(packetDropped)"
attr title "queue length, vector"
vector 442 scenario.client[2].ppp[4].ppp.queue packetPopped:vector(packetBytes) ETV
attr interpolationmode none
attr title "packet popped, vector(packetBytes)"
vector 443 scenario.client[2].ppp[4].ppp.queue queueingTime:vector ETV
attr interpolationmode none
attr source queueingTime(packetPopped)
attr title "queueing times, vector"
attr unit s
vector 444 scenario.client[2].ppp[4].ppp txPk:vector(packetBytes) ETV
attr interpolationmode none
attr source packetSentToLower
attr title "packets transmitted, vector(packetBytes)"
vector 445 scenario.client[5].ppp[2].ppp rxPkOk:vector(packetBytes) ETV
attr interpolationmode none
attr source rxPkOk
attr title "packets received OK, vector(packetBytes)"
vector 446 scenario.client[5].ppp[2].ppp passedUpPk:vector(packetBytes) ETV
attr interpolationmode none
attr source packetSentToUpper
attr title "packets passed to higher layer, vector(packetBytes)"
vector 447 scenario.client[5].tcp.conn-84 rcvSeq:vector ETV
attr interpolationmode sample-hold
vector 448 scenario.client[5].tcp.conn-84 rcvAck:vector ETV
attr interpolationmode sample-hold
vector 449 scenario.client[5].tcp.conn-84 sndWnd:vector ETV
attr interpolationmode sample-hold
vector 450 scenario.client[5].tcp.conn-84 unacked:vector ETV
attr interpolationmode sample-hold
vector 451 scenario.client[2].tcp.conn-85 rcvSeq:vector ETV
attr interpolationmode sample-hold
vector 452 scenario.client[2].tcp.conn-85 rcvAck:vector ETV
attr interpolationmode sample-hold
vector 453 scenario.client[2].tcp.conn-85 unacked:vector ETV
attr interpolationmode sample-hold
vector 454 scenario.client[2].tcp.conn-85 cwnd:vector ETV
attr interpolationmode sample-hold
vector 455 scenario.client[2].tcp.conn-85 ssthresh:vector ETV
attr interpolationmode sample-hold
vector 456 scenario.client[2].tcp.conn-85 dupAcks:vector ETV
attr interpolationmode sample-hold
vector 457 scenario.client[5].tcp.conn-84 rtt:vector ETV
attr interpolationmode sample-hold
vector 458 scenario.client[5].tcp.conn-84 srtt:vector ETV
attr interpolationmode sample-hold
vector 459 scenario.client[5].tcp.conn-84 rttvar:vector ETV
attr interpolationmode sample-hold
vector 460 scenario.client[5].tcp.conn-84 rto:vector ETV
attr interpolationmode sample-hold
vector 461 scenario.client[5].tcp.conn-84 cwnd:vector ETV
attr interpolationmode sample-hold
vector 462 scenario.client[5].tcp.conn-84 ssthresh:vector ETV
attr interpolationmode sample-hold
vector 463 scenario.client[5].tcp.conn-84 dupAcks:vector ETV
attr interpolationmode sample-hold
vector 464 scenario.client[1].tcp.conn-86 tcpRcvQueueBytes:vector ETV
attr interpolationmode sample-hold
vector 465 scenario.client[1].tcp.conn-86 rcvAdv:vector ETV
attr interpolationmode sample-hold
vector 466 scenario.client[1].tcp.conn-86 rcvWnd:vector ETV
attr interpolationmode sample-hold
vector 467 scenario.client[1].tcp.conn-86 sndAck:vector ETV
attr interpolationmode sample-hold
vector 468 scenario.client[5].tcp.conn-5 rcvSeq:vector ETV
attr interpolationmode sample-hold
vector 469 scenario.client[5].tcp.conn-5 rcvAck:vector ETV
attr interpolationmode sample-hold
vector 470 scenario.client[5].tcp.conn-87 rcvAdv:vector ETV
attr interpolationmode sample-hold
vector 471 scenario.client[5].tcp.conn-87 sndWnd:vector ETV
attr interpolationmode sample-hold
vector 472 scenario.client[5].tcp.conn-87 tcpRcvQueueBytes:vector ETV
attr interpolationmode sample-hold
vector 473 scenario.client[5].tcp.conn-87 rcvWnd:vector ETV
attr interpolationmode sample-hold
vector 474 scenario.client[5].tcp.conn-87 sndAck:vector ETV
attr interpolationmode sample-hold
vector 475 scenario.client[1].tcp.conn-86 rcvSeq:vector ETV
attr interpolationmode sample-hold
vector 476 scenario.client[1].tcp.conn-86 rcvAck:vector ETV
attr interpolationmode sample-hold
vector 477 scenario.client[1].tcp.conn-86 sndWnd:vector ETV
attr interpolationmode sample-hold
vector 478 scenario.client[1].tcp.conn-86 unacked:vector ETV
attr interpolationmode sample-hold
vector 479 scenario.client[5].tcp.conn-87 rcvSeq:vector ETV
attr interpolationmode sample-hold
vector 480 scenario.client[5].tcp.conn-87 rcvAck:vector ETV
attr interpolationmode sample-hold
vector 481 scenario.client[5].tcp.conn-87 unacked:vector ETV
attr interpolationmode sample-hold
vector 482 scenario.client[5].tcp.conn-87 cwnd:vector ETV
attr interpolationmode sample-hold
vector 483 scenario.client[5].tcp.conn-87 ssthresh:vector ETV
attr interpolationmode sample-hold
vector 484 scenario.client[5].tcp.conn-87 dupAcks:vector ETV
attr interpolationmode sample-hold
vector 485 scenario.client[1].tcp.conn-86 rtt:vector ETV
attr interpolationmode sample-hold
vector 486 scenario.client[1].tcp.conn-86 srtt:vector ETV
attr interpolationmode sample-hold
vector 487 scenario.client[1].tcp.conn-86 rttvar:vector ETV
attr interpolationmode sample-hold
vector 488 scenario.client[1].tcp.conn-86 rto:vector ETV
attr interpolationmode sample-hold
vector 489 scenario.client[1].tcp.conn-86 cwnd:vector ETV
attr interpolationmode sample-hold
vector 490 scenario.client[1].tcp.conn-86 ssthresh:vector ETV
attr interpolationmode sample-hold
vector 491 scenario.client[1].tcp.conn-86 dupAcks:vector ETV
attr interpolationmode sample-hold
vector 492 scenario.client[0].tcp.conn-88 tcpRcvQueueBytes:vector ETV
attr interpolationmode sample-hold
vector 493 scenario.client[0].tcp.conn-88 rcvAdv:vector ETV
attr interpolationmode sample-hold
vector 494 scenario.client[0].tcp.conn-88 rcvWnd:vector ETV
attr interpolationmode sample-hold
vector 495 scenario.client[0].tcp.conn-88 sndAck:vector ETV
attr interpolationmode sample-hold
vector 496 scenario.client[5].tcp.conn-89 rcvAdv:vector ETV
attr interpolationmode sample-hold
vector 497 scenario.client[5].tcp.conn-89 sndWnd:vector ETV
attr interpolationmode sample-hold
vector 498 scenario.client[5].tcp.conn-89 tcpRcvQueueBytes:vector ETV
attr interpolationmode sample-hold
vector 499 scenario.client[5].tcp.conn-89 rcvWnd:vector ETV
attr interpolationmode sample-hold
vector 500 scenario.client[5].tcp.conn-89 sndAck:vector ETV
attr interpolationmode sample-hold
vector 501 scenario.client[0].tcp.conn-88 rcvSeq:vector ETV
attr interpolationmode sample-hold
vector 502 scenario.client[0].tcp.conn-88 rcvAck:vector ETV
attr interpolationmode sample-hold
vector 503 scenario.client[0].tcp.conn-88 sndWnd:vector ETV
attr interpolationmode sample-hold
vector 504 scenario.client[0].tcp.conn-88 unacked:vector ETV
attr interpolationmode sample-hold
vector 505 scenario.client[5].tcp.conn-89 rcvSeq:vector ETV
attr interpolationmode sample-hold
vector 506 scenario.client[5].tcp.conn-89 rcvAck:vector ETV
attr interpolationmode sample-hold
vector 507 scenario.client[5].tcp.conn-89 unacked:vector ETV
attr interpolationmode sample-hold
vector 508 scenario.client[5].tcp.conn-89 cwnd:vector ETV
attr interpolationmode sample-hold
vector 509 scenario.client[5].tcp.conn-89 ssthresh:vector ETV
attr interpolationmode sample-hold
vector 510 scenario.client[5].tcp.conn-89 dupAcks:vector ETV
attr interpolationmode sample-hold
vector 511 scenario.client[0].tcp.conn-88 rtt:vector ETV
attr interpolationmode sample-hold
vector 512 scenario.client[0].tcp.conn-88 srtt:vector ETV
attr interpolationmode sample-hold
vector 513 scenario.client[0].tcp.conn-88 rttvar:vector ETV
attr interpolationmode sample-hold
vector 514 scenario.client[0].tcp.conn-88 rto:vector ETV
attr interpolationmode sample-hold
vector 515 scenario.client[0].tcp.conn-88 cwnd:vector ETV
attr interpolationmode sample-hold
vector 516 scenario.client[0].tcp.conn-88 ssthresh:vector ETV
attr interpolationmode sample-hold
vector 517 scenario.client[0].tcp.conn-88 dupAcks:vector ETV
attr interpolationmode sample-hold
vector 518 scenario.client[5].tcp.conn-90 tcpRcvQueueBytes:vector ETV
attr interpolationmode sample-hold
vector 519 scenario.client[5].tcp.conn-90 rcvAdv:vector ETV
attr interpolationmode sample-hold
vector 520 scenario.client[5].tcp.conn-90 rcvWnd:vector ETV
attr interpolationmode sample-hold
vector 521 scenario.client[5].tcp.conn-90 sndAck:vector ETV
attr interpolationmode sample-hold
vector 522 scenario.client[5].ppp[3].ppp rcvdPkFromHl:vector(packetBytes) ETV
attr interpolationmode none
attr source packetReceivedFromUpper
attr title "packets received from higher layer, vector(packetBytes)"
vector 523 scenario.client[5].ppp[3].ppp.queue packetPushed:vector(packetBytes) ETV
attr interpolationmode none
attr title "packet pushed, vector(packetBytes)"
vector 524 scenario.client[5].ppp[3].ppp.queue queueLength:vector ETV
attr interpolationmode sample-hold
attr source "count(packetPushed) - count(packetPopped) - count(packetRemoved) - count(packetDropped)"
attr title "queue length, vector"
vector 525 scenario.client[5].ppp[3].ppp.queue packetPopped:vector(packetBytes) ETV
attr interpolationmode none
attr title "packet popped, vector(packetBytes)"
vector 526 scenario.client[5].ppp[3].ppp.queue queueingTime:vector ETV
attr interpolationmode none
attr source queueingTime(packetPopped)
attr title "queueing times, vector"
attr unit s
vector 527 scenario.client[5].ppp[3].ppp txPk:vector(packetBytes) ETV
attr interpolationmode none
attr source packetSentToLower
attr title "packets transmitted, vector(packetBytes)"
vector 528 scenario.client[3].ppp[4].ppp rxPkOk:vector(packetBytes) ETV
attr interpolationmode none
attr source rxPkOk
attr title "packets received OK, vector(packetBytes)"
vector 529 scenario.client[3].ppp[4].ppp passedUpPk:vector(packetBytes) ETV
attr interpolationmode none
attr source packetSentToUpper
attr title "packets passed to higher layer, vector(packetBytes)"
vector 530 scenario.client[3].tcp.conn-91 rcvAdv:vector ETV
attr interpolationmode sample-hold
vector 531 scenario.client[3].tcp.conn-91 sndWnd:vector ETV
attr interpolationmode sample-hold
vector 532 scenario.client[3].tcp.conn-91 tcpRcvQueueBytes:vector ETV
attr interpolationmode sample-hold
vector 533 scenario.client[3].tcp.conn-91 rcvWnd:vector ETV
attr interpolationmode sample-hold
vector 534 scenario.client[3].tcp.conn-91 sndAck:vector ETV
attr interpolationmode sample-hold
vector 535 scenario.client[3].ppp[4].ppp rcvdPkFromHl:vector(packetBytes) ETV
attr interpolationmode none
attr source packetReceivedFromUpper
attr title "packets received from higher layer, vector(packetBytes)"
vector 536 scenario.client[3].ppp[4].ppp.queue packetPushed:vector(packetBytes) ETV
attr interpolationmode none
attr title "packet pushed, vector(packetBytes)"
vector 537 scenario.client[3].ppp[4].ppp.queue queueLength:vector ETV
attr interpolationmode sample-hold
attr source "count(packetPushed) - count(packetPopped) - count(packetRemoved) - count(packetDropped)"
attr title "queue length, vector"
vector 538 scenario.client[3].ppp[4].ppp.queue packetPopped:vector(packetBytes) ETV
attr interpolationmode none
attr title "packet popped, vector(packetBytes)"
vector 539 scenario.client[3].ppp[4].ppp.queue queueingTime:vector ETV
attr interpolationmode none
attr source queueingTime(packetPopped)
attr title "queueing times, vector"
attr unit s
vector 540 scenario.client[3].ppp[4].ppp txPk:vector(packetBytes) ETV
attr interpolationmode none
attr source packetSentToLower
attr title "packets transmitted, vector(packetBytes)"
vector 541 scenario.client[5].ppp[3].ppp rxPkOk:vector(packetBytes) ETV
attr interpolationmode none
attr source rxPkOk
attr title "packets received OK, vector(packetBytes)"
vector 542 scenario.client[5].ppp[3].ppp passedUpPk:vector(packetBytes) ETV
attr interpolationmode none
attr source packetSentToUpper
attr title "packets passed to higher layer, vector(packetBytes)"
vector 543 scenario.client[5].tcp.conn-90 rcvSeq:vector ETV
attr interpolationmode sample-hold
vector 544 scenario.client[5].tcp.conn-90 rcvAck:vector ETV
attr interpolationmode sample-hold
vector 545 scenario.client[5].tcp.conn-90 sndWnd:vector ETV
attr interpolationmode sample-hold
vector 546 scenario.client[5].tcp.conn-90 unacked:vector ETV
attr interpolationmode sample-hold
vector 547 scenario.client[3].tcp.conn-91 rcvSeq:vector ETV
attr interpolationmode sample-hold
vector 548 scenario.client[3].tcp.conn-91 rcvAck:vector ETV
attr interpolationmode sample-hold
vector 549 scenario.client[3].tcp.conn-91 unacked:vector ETV
attr interpolationmode sample-hold
vector 550 scenario.client[3].tcp.conn-91 cwnd:vector ETV
attr interpolationmode sample-hold
vector 551 scenario.client[3].tcp.conn-91 ssthresh:vector ETV
attr interpolationmode sample-hold
vector 552 scenario.client[3].tcp.conn-91 dupAcks:vector ETV
attr interpolationmode sample-hold
vector 553 scenario.client[5].tcp.conn-90 rtt:vector ETV
attr interpolationmode sample-hold
vector 554 scenario.client[5].tcp.conn-90 srtt:vector ETV
attr interpolationmode sample-hold
vector 555 scenario.client[5].tcp.conn-90 rttvar:vector ETV
attr interpolationmode sample-hold
vector 556 scenario.client[5].tcp.conn-90 rto:vector ETV
attr interpolationmode sample-hold
vector 557 scenario.client[5].tcp.conn-90 cwnd:vector ETV
attr interpolationmode sample-hold
vector 558 scenario.client[5].tcp.conn-90 ssthresh:vector ETV
attr interpolationmode sample-hold
vector 559 scenario.client[5].tcp.conn-90 dupAcks:vector ETV
attr interpolationmode sample-hold
vector 560 scenario.client[2].tcp.conn-92 tcpRcvQueueBytes:vector ETV
attr interpolationmode sample-hold
vector 561 scenario.client[2].tcp.conn-92 rcvAdv:vector ETV
attr interpolationmode sample-hold
vector 562 scenario.client[2].tcp.conn-92 rcvWnd:vector ETV
attr interpolationmode sample-hold
vector 563 scenario.client[2].tcp.conn-92 sndAck:vector ETV
attr interpolationmode sample-hold
vector 564 scenario.client[5].tcp.conn-93 rcvAdv:vector ETV
attr interpolationmode sample-hold
vector 565 scenario.client[5].tcp.conn-93 sndWnd:vector ETV
attr interpolationmode sample-hold
vector 566 scenario.client[5].tcp.conn-93 tcpRcvQueueBytes:vector ETV
attr interpolationmode sample-hold
vector 567 scenario.client[5].tcp.conn-93 rcvWnd:vector ETV
attr interpolationmode sample-hold
vector 568 scenario.client[5].tcp.conn-93 sndAck:vector ETV
attr interpolationmode sample-hold
vector 569 scenario.client[2].tcp.conn-92 rcvSeq:vector ETV
attr interpolationmode sample-hold
vector 570 scenario.client[2].tcp.conn-92 rcvAck:vector ETV
attr interpolationmode sample-hold
vector 571 scenario.client[2].tcp.conn-92 sndWnd:vector ETV
attr interpolationmode sample-hold
vector 572 scenario.client[2].tcp.conn-92 unacked:vector ETV
attr interpolationmode sample-hold
vector 573 scenario.client[5].tcp.conn-93 rcvSeq:vector ETV
attr interpolationmode sample-hold
vector 574 scenario.client[5].tcp.conn-93 rcvAck:vector ETV
attr interpolationmode sample-hold
vector 575 scenario.client[5].tcp.conn-93 unacked:vector ETV
attr interpolationmode sample-hold
vector 576 scenario.client[5].tcp.conn-93 cwnd:vector ETV
attr interpolationmode sample-hold
vector 577 scenario.client[5].tcp.conn-93 ssthresh:vector ETV
attr interpolationmode sample-hold
vector 578 scenario.client[5].tcp.conn-93 dupAcks:vector ETV
attr interpolationmode sample-hold
vector 579 scenario.client[2].tcp.conn-92 rtt:vector ETV
attr interpolationmode sample-hold
vector 580 scenario.client[2].tcp.conn-92 srtt:vector ETV
attr interpolationmode sample-hold
vector 581 scenario.client[2].tcp.conn-92 rttvar:vector ETV
attr interpolationmode sample-hold
vector 582 scenario.client[2].tcp.conn-92 rto:vector ETV
attr interpolationmode sample-hold
vector 583 scenario.client[2].tcp.conn-92 cwnd:vector ETV
attr interpolationmode sample-hold
vector 584 scenario.client[2].tcp.conn-92 ssthresh:vector ETV
attr interpolationmode sample-hold
vector 585 scenario.client[2].tcp.conn-92 dupAcks:vector ETV
attr interpolationmode sample-hold
vector 586 scenario.client[5].tcp.conn-94 tcpRcvQueueBytes:vector ETV
attr interpolationmode sample-hold
vector 587 scenario.client[5].tcp.conn-94 rcvAdv:vector ETV
attr interpolationmode sample-hold
vector 588 scenario.client[5].tcp.conn-94 rcvWnd:vector ETV
attr interpolationmode sample-hold
vector 589 scenario.client[5].tcp.conn-94 sndAck:vector ETV
attr interpolationmode sample-hold
vector 590 scenario.client[5].ppp[4].ppp rcvdPkFromHl:vector(packetBytes) ETV
attr interpolationmode none
attr source packetReceivedFromUpper
attr title "packets received from higher layer, vector(packetBytes)"
vector 591 scenario.client[5].ppp[4].ppp.queue packetPushed:vector(packetBytes) ETV
attr interpolationmode none
attr title "packet pushed, vector(packetBytes)"
vector 592 scenario.client[5].ppp[4].ppp.queue queueLength:vector ETV
attr interpolationmode sample-hold
attr source "count(packetPushed) - count(packetPopped) - count(packetRemoved) - count(packetDropped)"
attr title "queue length, vector"
vector 593 scenario.client[5].ppp[4].ppp.queue packetPopped:vector(packetBytes) ETV
attr interpolationmode none
attr title "packet popped, vector(packetBytes)"
vector 594 scenario.client[5].ppp[4].ppp.queue queueingTime:vector ETV
attr interpolationmode none
attr source queueingTime(packetPopped)
attr title "queueing times, vector"
attr unit s
vector 595 scenario.client[5].ppp[4].ppp txPk:vector(packetBytes) ETV
attr interpolationmode none
attr source packetSentToLower
attr title "packets transmitted, vector(packetBytes)"
vector 596 scenario.client[4].ppp[4].ppp rxPkOk:vector(packetBytes) ETV
attr interpolationmode none
attr source rxPkOk
attr title "packets received OK, vector(packetBytes)"
vector 597 scenario.client[4].ppp[4].ppp passedUpPk:vector(packetBytes) ETV
attr interpolationmode none
attr source packetSentToUpper
attr title "packets passed to higher layer, vector(packetBytes)"
vector 598 scenario.client[4].tcp.conn-95 rcvAdv:vector ETV
attr interpolationmode sample-hold
vector 599 scenario.client[4].tcp.conn-95 sndWnd:vector ETV
attr interpolationmode sample-hold
vector 600 scenario.client[4].tcp.conn-95 tcpRcvQueueBytes:vector ETV
attr interpolationmode sample-hold
vector 601 scenario.client[4].tcp.conn-95 rcvWnd:vector ETV
attr interpolationmode sample-hold
vector 602 scenario.client[4].tcp.conn-95 sndAck:vector ETV
attr interpolationmode sample-hold
vector 603 scenario.client[4].ppp[4].ppp rcvdPkFromHl:vector(packetBytes) ETV
attr interpolationmode none
attr source packetReceivedFromUpper
attr title "packets received from higher layer, vector(packetBytes)"
vector 604 scenario.client[4].ppp[4].ppp.queue packetPushed:vector(packetBytes) ETV
attr interpolationmode none
attr title "packet pushed, vector(packetBytes)"
vector 605 scenario.client[4].ppp[4].ppp.queue queueLength:vector ETV
attr interpolationmode sample-hold
attr source "count(packetPushed) - count(packetPopped) - count(packetRemoved) - count(packetDropped)"
attr title "queue length, vector"
vector 606 scenario.client[4].ppp[4].ppp.queue packetPopped:vector(packetBytes) ETV
attr interpolationmode none
attr title "packet popped, vector(packetBytes)"
vector 607 scenario.client[4].ppp[4].ppp.queue queueingTime:vector ETV
attr interpolationmode none
attr source queueingTime(packetPopped)
attr title "queueing times, vector"
attr unit s
vector 608 scenario.client[4].ppp[4].ppp txPk:vector(packetBytes) ETV
attr interpolationmode none
attr source packetSentToLower
attr title "packets transmitted, vector(packetBytes)"
vector 609 scenario.client[5].ppp[4].ppp rxPkOk:vector(packetBytes) ETV
attr interpolationmode none
attr source rxPkOk
attr title "packets received OK, vector(packetBytes)"
vector 610 scenario.client[5].ppp[4].ppp passedUpPk:vector(packetBytes) ETV
attr interpolationmode none
attr source packetSentToUpper
attr title "packets passed to higher layer, vector(packetBytes)"
vector 611 scenario.client[5].tcp.conn-94 rcvSeq:vector ETV
attr interpolationmode sample-hold
vector 612 scenario.client[5].tcp.conn-94 rcvAck:vector ETV
attr interpolationmode sample-hold
vector 613 scenario.client[5].tcp.conn-94 sndWnd:vector ETV
attr interpolationmode sample-hold
vector 614 scenario.client[5].tcp.conn-94 unacked:vector ETV
attr interpolationmode sample-hold
vector 615 scenario.client[4].tcp.conn-95 rcvSeq:vector ETV
attr interpolationmode sample-hold
vector 616 scenario.client[4].tcp.conn-95 rcvAck:vector ETV
attr interpolationmode sample-hold
vector 617 scenario.client[4].tcp.conn-95 unacked:vector ETV
attr interpolationmode sample-hold
vector 618 scenario.client[4].tcp.conn-95 cwnd:vector ETV
attr interpolationmode sample-hold
vector 619 scenario.client[4].tcp.conn-95 ssthresh:vector ETV
attr interpolationmode sample-hold
vector 620 scenario.client[4].tcp.conn-95 dupAcks:vector ETV
attr interpolationmode sample-hold
vector 621 scenario.client[5].tcp.conn-94 rtt:vector ETV
attr interpolationmode sample-hold
vector 622 scenario.client[5].tcp.conn-94 srtt:vector ETV
attr interpolationmode sample-hold
vector 623 scenario.client[5].tcp.conn-94 rttvar:vector ETV
attr interpolationmode sample-hold
vector 624 scenario.client[5].tcp.conn-94 rto:vector ETV
attr interpolationmode sample-hold
vector 625 scenario.client[5].tcp.conn-94 cwnd:vector ETV
attr interpolationmode sample-hold
vector 626 scenario.client[5].tcp.conn-94 ssthresh:vector ETV
attr interpolationmode sample-hold
vector 627 scenario.client[5].tcp.conn-94 dupAcks:vector ETV
attr interpolationmode sample-hold
vector 628 scenario.client[3].tcp.conn-96 tcpRcvQueueBytes:vector ETV
attr interpolationmode sample-hold
vector 629 scenario.client[3].tcp.conn-96 rcvAdv:vector ETV
attr interpolationmode sample-hold
vector 630 scenario.client[3].tcp.conn-96 rcvWnd:vector ETV
attr interpolationmode sample-hold
vector 631 scenario.client[3].tcp.conn-96 sndAck:vector ETV
attr interpolationmode sample-hold
vector 632 scenario.client[5].tcp.conn-97 rcvAdv:vector ETV
attr interpolationmode sample-hold
vector 633 scenario.client[5].tcp.conn-97 sndWnd:vector ETV
attr interpolationmode sample-hold
vector 634 scenario.client[5].tcp.conn-97 tcpRcvQueueBytes:vector ETV
attr interpolationmode sample-hold
vector 635 scenario.client[5].tcp.conn-97 rcvWnd:vector ETV
attr interpolationmode sample-hold
vector 636 scenario.client[5].tcp.conn-97 sndAck:vector ETV
attr interpolationmode sample-hold
vector 637 scenario.client[3].tcp.conn-96 rcvSeq:vector ETV
attr interpolationmode sample-hold
vector 638 scenario.client[3].tcp.conn-96 rcvAck:vector ETV
attr interpolationmode sample-hold
[...]
1771	4326929 1532 4892 45773 15.993082522417 112.396430431467 42 0.00176 0.002136 0.08032 0.000155030656
1772	4328461 1791 4892 45773 15.993082522417 112.396430431467 42 0.00022 0.001949970114 0.066981878944 0.00011564084194151
1773	4330252 1792 4892 45773 15.993082522417 112.396430431467 42 0.002957209628 0.65647 5.248056228888 1.8430172410921
1774	4332044 1351 4892 45773 15.993082522417 112.396430431467 42 1 2.6261 47.8080736411 60.00309873111
1775	4333395 1388 4892 45773 15.993082522417 112.396430431467 42 1072 1608 53600 71249408
1776	4334783 1640 4892 45773 15.993082522417 112.396430431467 42 4294967295 4294967295 180388626390 7.7476325073502e+020
1777	4336423 1262 4892 45773 15.993082522417 112.396430431467 42 0 0 0 0
1778	4337685 1260 4940 45177 16.30470900601 109.171171179172 42 0 0 0 0
1779	4338945 1543 4940 45177 16.30470900601 109.171171179172 43 7504 4083909 171531682 7.0048919056182e+014
1780	4340488 1386 4940 45177 16.30470900601 109.171171179172 42 7504 7504 315168 2365020672
1781	4341874 1506 4940 45177 16.30470900601 109.171171179172 42 0 4076405 167132605 6.8130018668502e+014
1782	4343380 1546 4947 45183 16.30561700601 109.172055179172 43 4083682 4083724 175599225 7.1709506560214e+014
1783	4344926 62 4947 4960 16.30561700601 16.30740900601 2 7504 7504 15008 112620032
1784	4344988 2492 4947 45183 16.30561700601 109.172055179172 83 0 1 1 1
1785	4347480 1386 4947 45183 16.30561700601 109.172055179172 42 7503 7504 315167 2365005665
1786	4348866 1512 4947 45183 16.30561700601 109.172055179172 42 4076178 4076220 171200376 6.978468748287e+014
1787	4350378 1512 4953 45195 16.30652500601 109.172931179172 42 4076404 4076405 171209009 6.9791725625624e+014
1788	4351890 1512 4953 45195 16.30652500601 109.172931179172 42 4076178 4076220 171200376 6.978468748287e+014
1789	4353402 1386 4953 45195 16.30652500601 109.172931179172 42 7503 7504 315167 2365005665
1790	4354788 2464 4953 45195 16.30652500601 109.172931179172 82 0 2 42 44
1791	4357252 1478 4960 45183 16.30740900601 109.172055179172 41 4076178 4076219 167124156 6.812313053403e+014
1792	4358730 1478 4960 45183 16.30740900601 109.172055179172 41 4076405 4076405 167132605 6.8130018668502e+014
1793	4360208 28 4960 4960 16.30740900601 16.30740900601 1 0 0 0 0
1794	4360236 31 4960 4960 16.30740900601 16.30740900601 1 1072 1072 1072 1149184
1795	4360267 37 4960 4960 16.30740900601 16.30740900601 1 4294967295 4294967295 4294967295 1.844674406512e+019
1796	4360304 1232 4960 45183 16.30740900601 109.172055179172 41 0 0 0 0
1797	4361536 1496 4970 45195 16.30828500601 109.172931179172 41 0.00176 0.002136 0.07856 0.000151933056
1798	4363032 1748 4970 45195 16.30828500601 109.172931179172 41 0.00022 0.001949970114 0.065076433075 0.00011201011798182
1799	4364780 1749 4970 45195 16.30828500601 109.172931179172 41 0.003355921882 0.65647 5.24509901926 1.8430084960034
1800	4366529 1321 4970 45195 16.30828500601 109.172931179172 41 1 2.6261 46.8080736411 59.00309873111
1801	4367850 1355 4970 45195 16.30828500601 109.172931179172 41 1072 1608 52528 70100224
1802	4369205 1601 4970 45195 16.30828500601 109.172931179172 41 4294967295 4294967295 176093659095 7.563165066699e+020
1803	4370806 1232 4970 45195 16.30828500601 109.172931179172 41 0 0 0 0
1804	4372038 1168 5520 43590 18.810973419234 105.920250009337 39 0 0 0 0
1805	4373206 1434 5520 43590 18.810973419234 105.920250009337 40 7504 4710475 183716029 8.6535447060939e+014
1806	4374640 1285 5520 43590 18.810973419234 105.920250009337 39 7504 7504 292656 2196090624
1807	4375925 1396 5520 43590 18.810973419234 105.920250009337 39 0 4702971 178712898 8.4048157661996e+014
1808	4377321 1437 5527 43600 18.811881419234 105.921510009337 40 4710248 4710287 188410696 8.8746475918559e+014
1809	4378758 64 5527 5540 18.811881419234 18.813673419234 2 7504 7504 15008 112620032
1810	4378822 2307 5527 43600 18.811881419234 105.921510009337 77 0 1 1 1
1811	4381129 1285 5527 43600 18.811881419234 105.921510009337 39 7503 7504 292655 2196075617
1812	4382414 1402 5527 43600 18.811881419234 105.921510009337 39 4702744 4702783 183407793 8.6252355213661e+014
1813	4383816 1402 5533 43607 18.812789419234 105.922386009337 39 4702970 4702971 183415868 8.6259950344086e+014
1814	4385218 1402 5533 43607 18.812789419234 105.922386009337 39 4702744 4702783 183407793 8.6252355213661e+014
1815	4386620 1285 5533 43607 18.812789419234 105.922386009337 39 7503 7504 292655 2196075617
1816	4387905 2278 5533 43607 18.812789419234 105.922386009337 76 0 2 39 41
1817	4390183 1367 5540 43600 18.813673419234 105.921510009337 38 4702744 4702782 178705010 8.4040738419152e+014
1818	4391550 1367 5540 43600 18.813673419234 105.921510009337 38 4702971 4702971 178712898 8.4048157661996e+014
1819	4392917 29 5540 5540 18.813673419234 18.813673419234 1 0 0 0 0
1820	4392946 32 5540 5540 18.813673419234 18.813673419234 1 1072 1072 1072 1149184
1821	4392978 38 5540 5540 18.813673419234 18.813673419234 1 4294967295 4294967295 4294967295 1.844674406512e+019
1822	4393016 1139 5540 43600 18.813673419234 105.921510009337 38 0 0 0 0
1823	4394155 1385 5550 43607 18.814549419234 105.922386009337 38 0.00176 0.002136 0.07328 0.000142640256
1824	4395540 1617 5550 43607 18.814549419234 105.922386009337 38 0.00022 0.001947391647 0.059648258492 0.00010185814401786
1825	4397157 1617 5550 43607 18.814549419234 105.922386009337 38 0.004912120696 0.65647 5.233696747712 1.8430391188339
1826	4398774 1228 5550 43607 18.814549419234 105.922386009337 38 1 2.6261 43.808629562975 56.004451190073
1827	4400002 1253 5550 43607 18.814549419234 105.922386009337 38 1072 1608 47704 62343232
1828	4401255 1481 5550 43607 18.814549419234 105.922386009337 38 4294967295 4294967295 163208757210 7.0097627447455e+020
1829	4402736 1139 5550 43607 18.814549419234 105.922386009337 38 0 0 0 0
1830	4403875 1232 6117 45706 21.269185460982 111.986816982204 41 0 0 0 0
1831	4405107 1510 6117 45706 21.269185460982 111.986816982204 42 7504 5325028 218333652 1.1625929075422e+015
1832	4406617 1355 6117 45706 21.269185460982 111.986816982204 41 7504 7504 307664 2308710656
1833	4407972 1472 6117 45706 21.269185460982 111.986816982204 41 0 5317524 212700960 1.131042459623e+015
1834	4409444 1513 6124 45716 21.270093460982 111.988076982204 42 5324801 5324841 223642461 1.1908559610094e+015
1835	4410957 64 6124 6137 21.270093460982 21.271885460982 2 7504 7504 15008 112620032
1836	4411021 2435 6124 45716 21.270093460982 111.988076982204 81 0 1 1 1
1837	4413456 1355 6124 45716 21.270093460982 111.988076982204 41 7503 7504 307663 2308695649
1838	4414811 1478 6124 45716 21.270093460982 111.988076982204 41 5317297 5317337 218009997 1.1592282632238e+015
1839	4416289 1478 6130 45723 21.271001460982 111.988952982204 41 5317523 5317524 218018483 1.1593185104786e+015
1840	4417767 1478 6130 45723 21.271001460982 111.988952982204 41 5317297 5317337 218009997 1.1592282632238e+015
1841	4419245 1355 6130 45723 21.271001460982 111.988952982204 41 7503 7504 307663 2308695649
1842	4420600 2406 6130 45723 21.271001460982 111.988952982204 80 0 1 40 40
1843	4423006 1443 6137 45716 21.271885460982 111.988076982204 40 5317297 5317336 212692660 1.1309541904522e+015
1844	4424449 1443 6137 45716 21.271885460982 111.988076982204 40 5317524 5317524 212700960 1.131042459623e+015
1845	4425892 29 6137 6137 21.271885460982 21.271885460982 1 0 0 0 0
1846	4425921 32 6137 6137 21.271885460982 21.271885460982 1 1072 1072 1072 1149184
1847	4425953 38 6137 6137 21.271885460982 21.271885460982 1 4294967295 4294967295 4294967295 1.844674406512e+019
1848	4425991 1203 6137 45716 21.271885460982 111.988076982204 40 0 0 0 0
1849	4427194 1462 6147 45723 21.272761460982 111.988952982204 40 0.00176 0.002136 0.077544 0.000151737024
1850	4428656 1704 6147 45723 21.272761460982 111.988952982204 40 0.00022 0.001950920289 0.063887557967 0.00011036002905955
1851	4430360 1706 6147 45723 21.272761460982 111.988952982204 40 0.00380749724 0.65647 5.241900533946 1.8431577815193
1852	4432066 1292 6147 45723 21.272761460982 111.988952982204 40 1 2.6261 45.809208203634 58.006140462485
1853	4433358 1323 6147 45723 21.272761460982 111.988952982204 40 1072 1608 52528 71824000
1854	4434681 1563 6147 45723 21.272761460982 111.988952982204 40 4294967295 4294967295 171798691800 7.3786976260478e+020
1855	4436244 1203 6147 45723 21.272761460982 111.988952982204 40 0 0 0 0
1856	4437447 1258 6179 45087 21.423047578354 108.958049256865 42 0 0 0 0
1857	4438705 1542 6179 45087 21.423047578354 108.958049256865 43 7504 5363493 225274210 1.2082164570741e+015
1858	4440247 1384 6179 45087 21.423047578354 108.958049256865 42 7504 7504 315168 2365020672
1859	4441631 1504 6179 45087 21.423047578354 108.958049256865 42 0 5355989 219595549 1.176151344893e+015
1860	4443135 1545 6186 45093 21.423955578354 108.958933256865 43 5363266 5363308 230621337 1.2368883972084e+015
1861	4444680 64 6186 6199 21.423955578354 21.425747578354 2 7504 7504 15008 112620032
1862	4444744 2487 6186 45093 21.423955578354 108.958933256865 83 0 1 1 1
1863	4447231 1384 6186 45093 21.423955578354 108.958933256865 42 7503 7504 315167 2365005665
1864	4448615 1510 6186 45093 21.423955578354 108.958933256865 42 5355762 5355804 224942904 1.2047454776242e+015
1865	4450125 1510 6192 45105 21.424863578354 108.959809256865 42 5355988 5355989 224951537 1.2048379523491e+015
1866	4451635 1510 6192 45105 21.424863578354 108.959809256865 42 5355762 5355804 224942904 1.2047454776242e+015
1867	4453145 1384 6192 45105 21.424863578354 108.959809256865 42 7503 7504 315167 2365005665
1868	4454529 2458 6192 45105 21.424863578354 108.959809256865 82 0 2 42 44
1869	4456987 1475 6199 45093 21.425747578354 108.958933256865 41 5355762 5355803 219587100 1.1760608411378e+015
1870	4458462 1475 6199 45093 21.425747578354 108.958933256865 41 5355989 5355989 219595549 1.176151344893e+015
1871	4459937 29 6199 6199 21.425747578354 21.425747578354 1 0 0 0 0
1872	4459966 32 6199 6199 21.425747578354 21.425747578354 1 1072 1072 1072 1149184
1873	4459998 38 6199 6199 21.425747578354 21.425747578354 1 4294967295 4294967295 4294967295 1.844674406512e+019
1874	4460036 1229 6199 45093 21.425747578354 108.958933256865 41 0 0 0 0
1875	4461265 1493 6209 45105 21.426623578354 108.959809256865 41 0.00176 0.002136 0.07856 0.000151933056
1876	4462758 1746 6209 45105 21.426623578354 108.959809256865 41 0.00022 0.001949142345 0.065226315284 0.00011251493902398
1877	4464504 1741 6209 45105 21.426623578354 108.959809256865 41 0.003351732664 0.65647 5.24518903032 1.8430270311579
1878	4466245 1318 6209 45105 21.426623578354 108.959809256865 41 1 2.6261 46.8080736411 59.00309873111
1879	4467563 1352 6209 45105 21.426623578354 108.959809256865 41 1072 1608 53064 71536704
1880	4468915 1598 6209 45105 21.426623578354 108.959809256865 41 4294967295 4294967295 176093659095 7.563165066699e+020
1881	4470513 1229 6209 45105 21.426623578354 108.959809256865 41 0 0 0 0
1882	4471742 1202 6376 45766 22.271645252846 112.395554431467 40 0 0 0 0
1883	4472944 1474 6376 45766 22.271645252846 112.395554431467 41 7504 5575643 223033224 1.243511850848e+015
1884	4474418 1322 6376 45766 22.271645252846 112.395554431467 40 7504 7504 300160 2252400640
1885	4475740 1436 6376 45766 22.271645252846 112.395554431467 40 0 5568139 217157421 1.2091627050095e+015
1886	4477176 1477 6383 45776 22.272553252846 112.396814431467 41 5575416 5575455 228592835 1.274504493014e+015
1887	4478653 64 6383 6396 22.272553252846 22.274345252846 2 7504 7504 15008 112620032
1888	4478717 2375 6383 45776 22.272553252846 112.396814431467 79 0 1 1 1
1889	4481092 1322 6383 45776 22.272553252846 112.396814431467 40 7503 7504 300159 2252385633
1890	4482414 1442 6383 45776 22.272553252846 112.396814431467 40 5567912 5567951 222717260 1.240074447553e+015
1891	4483856 1442 6389 45783 22.273461252846 112.397690431467 40 5568138 5568139 222725559 1.2401668657966e+015
1892	4485298 1442 6389 45783 22.273461252846 112.397690431467 40 5567912 5567951 222717260 1.240074447553e+015
1893	4486740 1322 6389 45783 22.273461252846 112.397690431467 40 7503 7504 300159 2252385633
1894	4488062 2346 6389 45783 22.273461252846 112.397690431467 78 0 1 39 39
1895	4490408 1407 6396 45776 22.274345252846 112.396814431467 39 5567912 5567950 217149309 1.2090723692146e+015
1896	4491815 1407 6396 45776 22.274345252846 112.396814431467 39 5568139 5568139 217157421 1.2091627050095e+015
1897	4493222 29 6396 6396 22.274345252846 22.274345252846 1 0 0 0 0
1898	4493251 32 6396 6396 22.274345252846 22.274345252846 1 1072 1072 1072 1149184
1899	4493283 38 6396 6396 22.274345252846 22.274345252846 1 4294967295 4294967295 4294967295 1.844674406512e+019
1900	4493321 1173 6396 45776 22.274345252846 112.396814431467 39 0 0 0 0
1901	4494494 1426 6406 45783 22.275221252846 112.397690431467 39 0.00176 0.002136 0.075784 0.000148639424
1902	4495920 1661 6406 45783 22.275221252846 112.397690431467 39 0.00022 0.001971398434 0.06198421097 0.00010669267812182
1903	4497581 1665 6406 45783 22.275221252846 112.397690431467 39 0.004321190542 0.65647 5.238081809407 1.8431518603782
1904	4499246 1262 6406 45783 22.275221252846 112.397690431467 39 1 2.6261 44.809347000509 57.006560383971
1905	4500508 1290 6406 45783 22.275221252846 112.397690431467 39 1072 1608 49848 66365376
1906	4501798 1524 6406 45783 22.275221252846 112.397690431467 39 4294967295 4294967295 167503724505 7.1942301853967e+020
1907	4503322 1173 6406 45783 22.275221252846 112.397690431467 39 0 0 0 0
1908	4504495 1144 13640 45477 45.039282211372 110.454230354554 38 0 0 0 0
1909	4505639 1443 13640 45477 45.039282211372 110.454230354554 39 7504 11267552 428174480 4.8243937230728e+015
1910	4507082 1258 13640 45477 45.039282211372 110.454230354554 38 7504 7504 285152 2139780608
1911	4508340 1403 13640 45477 45.039282211372 110.454230354554 38 0 11260048 416621776 4.6911811956052e+015
1912	4509743 2364 13643 45501 45.039282211372 110.456374354554 76 40 44 3085 125269
1913	4512107 2364 13643 45501 45.039282211372 110.456374354554 76 40 44 3085 125269
1914	4514471 4576 13643 45501 45.039282211372 110.456374354554 152 0 1 76 76
1915	4519047 2364 13643 45501 45.039282211372 110.456374354554 76 40 44 3085 125269
1916	4521411 2407 13643 45501 45.039282211372 110.456374354554 76 0 0.000376 0.006392 2.403392e-006
1917	4523818 2364 13643 45501 45.039282211372 110.456374354554 76 47 51 3617 172183
1918	4526182 2364 13645 45503 45.040190211372 110.457250354554 76 47 51 3617 172183
1919	4528546 2364 13645 45503 45.040190211372 110.457250354554 76 40 44 3085 125269
1920	4530910 1447 13647 45483 45.040190211372 110.455114354554 39 11267325 11267362 439426377 4.9511677129112e+015
1921	4532357 66 13647 13660 45.040190211372 45.041982211372 2 7504 7504 15008 112620032
1922	4532423 2258 13647 45483 45.040190211372 110.455114354554 75 0 1 1 1
1923	4534681 1258 13647 45483 45.040190211372 110.455114354554 38 7503 7504 285151 2139765601
1924	4535939 1410 13647 45483 45.040190211372 110.455114354554 38 11259821 11259858 427873901 4.8177914515035e+015
1925	4537349 2364 13649 45490 45.040190211372 110.455114354554 76 40 44 3085 125269
1926	4539713 2364 13649 45490 45.040190211372 110.455114354554 76 40 44 3085 125269
1927	4542077 4576 13649 45491 45.040190211372 110.455490354554 152 0 1 76 76
1928	4546653 2364 13649 45491 45.040190211372 110.455490354554 76 40 44 3085 125269
1929	4549017 2414 13649 45491 45.040190211372 110.455490354554 76 0 0.000376 0.006768 2.544768e-006
1930	4551431 2364 13649 45491 45.040190211372 110.455490354554 76 47 51 3617 172183
1931	4553795 2364 13651 45496 45.041098211372 110.456374354554 76 47 51 3617 172183
1932	4556159 2364 13651 45496 45.041098211372 110.456374354554 76 40 44 3085 125269
1933	4558523 1410 13653 45495 45.041098211372 110.455990354554 38 11260047 11260048 427881823 4.8179698540475e+015
1934	4559933 1410 13653 45495 45.041098211372 110.455990354554 38 11259821 11259858 427873901 4.8177914515035e+015
1935	4561343 1258 13653 45495 45.041098211372 110.455990354554 38 7503 7504 285151 2139765601
1936	4562601 2228 13653 45495 45.041098211372 110.455990354554 74 0 1 37 37
1937	4564829 1373 13660 45483 45.041982211372 110.455114354554 37 11259821 11259857 416614043 4.6910070493233e+015
1938	4566202 1373 13660 45483 45.041982211372 110.455114354554 37 11260048 11260048 416621776 4.6911811956052e+015
1939	4567575 30 13660 13660 45.041982211372 45.041982211372 1 0 0 0 0
1940	4567605 33 13660 13660 45.041982211372 45.041982211372 1 1072 1072 1072 1149184
1941	4567638 39 13660 13660 45.041982211372 45.041982211372 1 4294967295 4294967295 4294967295 1.844674406512e+019
1942	4567677 1114 13660 45483 45.041982211372 110.455114354554 37 0 0 0 0
1943	4568791 1353 13670 45495 45.042858211372 110.455990354554 37 0.00176 0.002136 0.071512 0.000139514432
1944	4570144 1576 13670 45495 45.042858211372 110.455990354554 37 0.00022 0.001944011657 0.058064928611 9.9012014550972e-005
1945	4571720 1580 13670 45495 45.042858211372 110.455990354554 37 0.005582578317 0.65647 5.228848989113 1.8431090635837
1946	4573300 1203 13670 45495 45.042858211372 110.455990354554 37 1 2.6261 42.809347000509 55.006560383971
1947	4574503 1225 13670 45495 45.042858211372 110.455990354554 37 1072 1608 48240 65503488
1948	4575728 1447 13670 45495 45.042858211372 110.455990354554 37 4294967295 4294967295 158913789915 6.8252953040943e+020
1949	4577175 1114 13670 45495 45.042858211372 110.455990354554 37 0 0 0 0
1950	4578289 1144 13717 45488 45.150802948698 110.455114354554 38 0 0 0 0
1951	4579433 1443 13717 45488 45.150802948698 110.455114354554 39 7504 11295432 429233920 4.8482978508417e+015
1952	4580876 1258 13717 45488 45.150802948698 110.455114354554 38 7504 7504 285152 2139780608
1953	4582134 1403 13717 45488 45.150802948698 110.455114354554 38 0 11287928 417653336 4.7144407857278e+015
1954	4583537 1447 13724 45498 45.151710948698 110.456374354554 39 11295205 11295242 440513697 4.9757004421744e+015
1955	4584984 66 13724 13737 45.151710948698 45.153502948698 2 7504 7504 15008 112620032
1956	4585050 2258 13724 45498 45.151710948698 110.456374354554 75 0 1 1 1
1957	4587308 1258 13724 45498 45.151710948698 110.456374354554 38 7503 7504 285151 2139765601
1958	4588566 1410 13724 45498 45.151710948698 110.456374354554 38 11287701 11287738 428933341 4.8416792374104e+015
1959	4589976 1410 13730 45505 45.152618948698 110.457250354554 38 11287927 11287928 428941263 4.8418580816851e+015
1960	4591386 1410 13730 45505 45.152618948698 110.457250354554 38 11287701 11287738 428933341 4.8416792374104e+015
1961	4592796 1258 13730 45505 45.152618948698 110.457250354554 38 7503 7504 285151 2139765601
1962	4594054 2228 13730 45505 45.152618948698 110.457250354554 74 0 1 37 37
1963	4596282 1373 13737 45498 45.153502948698 110.456374354554 37 11287701 11287737 417645603 4.7142662082538e+015
1964	4597655 1373 13737 45498 45.153502948698 110.456374354554 37 11287928 11287928 417653336 4.7144407857278e+015
1965	4599028 30 13737 13737 45.153502948698 45.153502948698 1 0 0 0 0
1966	4599058 33 13737 13737 45.153502948698 45.153502948698 1 1072 1072 1072 1149184
1967	4599091 39 13737 13737 45.153502948698 45.153502948698 1 4294967295 4294967295 4294967295 1.844674406512e+019
1968	4599130 1114 13737 45498 45.153502948698 110.456374354554 37 0 0 0 0
1969	4600244 1354 13747 45505 45.154378948698 110.457250354554 37 0.00176 0.002136 0.071888 0.000140979328
1970	4601598 1578 13747 45505 45.154378948698 110.457250354554 37 0.00022 0.001946310954 0.058263823332 9.9499203829981e-005
1971	4603176 1577 13747 45505 45.154378948698 110.457250354554 37 0.005584275087 0.65647 5.2288689283 1.8431667041955
1972	4604753 1202 13747 45505 45.154378948698 110.457250354554 37 1 2.6261 42.809684237841 55.007827882334
1973	4605955 1225 13747 45505 45.154378948698 110.457250354554 37 1072 1608 48240 65503488
1974	4607180 1447 13747 45505 45.154378948698 110.457250354554 37 4294967295 4294967295 158913789915 6.8252953040943e+020
1975	4608627 1114 13747 45505 45.154378948698 110.457250354554 37 0 0 0 0

