version 2
run BROADCAST5c-0-20220207-17:15:55-4392
attr configname BROADCAST5c
attr datetime 20220207-17:15:55
attr experiment BROADCAST5c
attr inifile omnetpp.ini
attr iterationvars ""
attr iterationvarsf ""
attr measurement ""
attr network scenario
attr processid 4392
attr repetition 0
attr replication #0
attr resultdir results
attr runnumber 0
attr seedset 0
param *.n 5
param **.client[*].app[0].nPar 5
param **.client[*].app[0].nNPar 1
param **.client[0].app[0].numMsg 4
param **.client[0].app[0].sendFrequency 2.5
param **.client[0].app[0].startSend 0.0
param **.client[4].app[0].join 2.0
param **.client[3].app[0].leave 0.5
param **.ppp[*].ppp.queue.typename "\"DropTailQueue\""
param **.tcp.typename "\"Tcp\""
param **.tcp.nagleEnabled false
param **.client[*].app[*].fPar 0
param **.numApps 1
param **.client[*].app[*].typename "\"Node\""
param **.client[*].app[0].localPort index+1000
param **.client[*].app[0].localPortL 1234
param **.client[*].app[0].connectAddress "\"\""
param **.client[*].app[0].connectPort 1234

scalar scenario.client[0].lo[0].lo rcvdPkFromHl:count 0
attr interpolationmode none
attr source packetReceivedFromUpper
attr title "packets received from higher layer, count"
scalar scenario.client[0].lo[0].lo rcvdPkFromHl:sum(packetBytes) 0
attr interpolationmode none
attr source packetReceivedFromUpper
attr title "packets received from higher layer, sum(packetBytes)"
scalar scenario.client[0].lo[0].lo passedUpPk:count 0
attr interpolationmode none
attr source packetSentToUpper
attr title "packets passed to higher layer, count"
scalar scenario.client[0].lo[0].lo passedUpPk:sum(packetBytes) 0
attr interpolationmode none
attr source packetSentToUpper
attr title "packets passed to higher layer, sum(packetBytes)"
scalar scenario.client[0].ppp[0].ppp.queue packetPopped:count 31
attr interpolationmode none
attr title "packet popped, count"
scalar scenario.client[0].ppp[0].ppp.queue packetPopped:sum(packetBytes) 1265
attr interpolationmode none
attr title "packet popped, sum(packetBytes)"
statistic scenario.client[0].ppp[0].ppp.queue queueingTime:histogram
field count 31
field mean 3.6387096774194e-005
field stddev 0.00011300196972306
field min 0
field max 0.000376
field sum 0.001128
field sqrsum 4.24128e-007
attr interpolationmode none
attr source queueingTime(packetPopped)
attr title "queueing times, histogram"
attr unit s
bin	-inf	0
bin	0	28
bin	1e-005	0
bin	2e-005	0
bin	3e-005	0
bin	4e-005	0
bin	5e-005	0
bin	6e-005	0
bin	7e-005	0
bin	8e-005	0
bin	9e-005	0
bin	0.0001	0
bin	0.00011	0
bin	0.00012	0
bin	0.00013	0
bin	0.00014	0
bin	0.00015	0
bin	0.00016	0
bin	0.00017	0
bin	0.00018	0
bin	0.00019	0
bin	0.0002	0
bin	0.00021	0
bin	0.00022	0
bin	0.00023	0
bin	0.00024	0
bin	0.00025	0
bin	0.00026	0
bin	0.00027	0
bin	0.00028	0
bin	0.00029	0
bin	0.0003	0
bin	0.00031	0
bin	0.00032	0
bin	0.00033	0
bin	0.00034	0
bin	0.00035	0
bin	0.00036	0
bin	0.00037	3
bin	0.00038	0
bin	0.00039	0
bin	0.0004	0
bin	0.00041	0
bin	0.00042	0
bin	0.00043	0
bin	0.00044	0
bin	0.00045	0
bin	0.00046	0
bin	0.00047	0
scalar scenario.client[0].ppp[0].ppp.queue queueLength:max 1
attr interpolationmode sample-hold
attr source "count(packetPushed) - count(packetPopped) - count(packetRemoved) - count(packetDropped)"
attr title "queue length, max"
scalar scenario.client[0].ppp[0].ppp.queue queueLength:timeavg 3.5881286382288e-008
attr interpolationmode sample-hold
attr source "count(packetPushed) - count(packetPopped) - count(packetRemoved) - count(packetDropped)"
attr title "queue length, timeavg"
scalar scenario.client[0].ppp[0].ppp.queue packetPushed:count 31
attr interpolationmode none
attr title "packet pushed, count"
scalar scenario.client[0].ppp[0].ppp.queue packetPushed:sum(packetBytes) 1265
attr interpolationmode none
attr title "packet pushed, sum(packetBytes)"
scalar scenario.client[0].ppp[0].ppp.queue packetDropQueueOverflow:count 0
attr interpolationmode none
attr source packetDropReasonIsQueueOverflow(packetDropped)
attr title "packet drops: queue overflow, count"
scalar scenario.client[0].ppp[0].ppp.queue packetDropQueueOverflow:sum(packetBytes) 0
attr interpolationmode none
attr source packetDropReasonIsQueueOverflow(packetDropped)
attr title "packet drops: queue overflow, sum(packetBytes)"
scalar scenario.client[0].ppp[0].ppp.queue packetRemoved:count 0
attr interpolationmode none
attr title "packets removed, count"
scalar scenario.client[0].ppp[0].ppp.queue packetRemoved:sum(packetBytes) 0
attr interpolationmode none
attr title "packets removed, sum(packetBytes)"
scalar scenario.client[0].ppp[0].ppp txPk:count 31
attr interpolationmode none
attr source packetSentToLower
attr title "packets transmitted, count"
scalar scenario.client[0].ppp[0].ppp txPk:sum(packetBytes) 1482
attr interpolationmode none
attr source packetSentToLower
attr title "packets transmitted, sum(packetBytes)"
scalar scenario.client[0].ppp[0].ppp rcvdPkFromHl:count 31
attr interpolationmode none
attr source packetReceivedFromUpper
attr title "packets received from higher layer, count"
scalar scenario.client[0].ppp[0].ppp rcvdPkFromHl:sum(packetBytes) 1265
attr interpolationmode none
attr source packetReceivedFromUpper
attr title "packets received from higher layer, sum(packetBytes)"
scalar scenario.client[0].ppp[0].ppp passedUpPk:count 31
attr interpolationmode none
attr source packetSentToUpper
attr title "packets passed to higher layer, count"
scalar scenario.client[0].ppp[0].ppp passedUpPk:sum(packetBytes) 1262
attr interpolationmode none
attr source packetSentToUpper
attr title "packets passed to higher layer, sum(packetBytes)"
scalar scenario.client[0].ppp[0].ppp packetDropIncorrectlyReceived:count 0
attr interpolationmode none
attr source packetDropReasonIsIncorrectlyReceived(packetDropped)
attr title "packet drop: incorrectly received, count"
scalar scenario.client[0].ppp[0].ppp packetDropIncorrectlyReceived:sum(packetBytes) 0
attr interpolationmode none
attr source packetDropReasonIsIncorrectlyReceived(packetDropped)
attr title "packet drop: incorrectly received, sum(packetBytes)"
scalar scenario.client[0].ppp[0].ppp packetDropInterfaceDown:count 0
attr interpolationmode none
attr source packetDropReasonIsInterfaceDown(packetDropped)
attr title "packet drop: interface down, count"
scalar scenario.client[0].ppp[0].ppp packetDropInterfaceDown:sum(packetBytes) 0
attr interpolationmode none
attr source packetDropReasonIsInterfaceDown(packetDropped)
attr title "packet drop: interface down, sum(packetBytes)"
scalar scenario.client[0].ppp[0].ppp rxPkOk:count 31
attr interpolationmode none
attr source rxPkOk
attr title "packets received OK, count"
scalar scenario.client[0].ppp[0].ppp rxPkOk:sum(packetBytes) 1479
attr interpolationmode none
attr source rxPkOk
attr title "packets received OK, sum(packetBytes)"
scalar scenario.client[0].ppp[0].ppp transmissionState:timeavg 3.7713522282661e-007
attr interpolationmode sample-hold
attr source transmissionStateChanged
attr title "tx state, timeavg"
scalar scenario.client[0].ppp[1].ppp.queue packetPopped:count 31
attr interpolationmode none
attr title "packet popped, count"
scalar scenario.client[0].ppp[1].ppp.queue packetPopped:sum(packetBytes) 1265
attr interpolationmode none
attr title "packet popped, sum(packetBytes)"
statistic scenario.client[0].ppp[1].ppp.queue queueingTime:histogram
field count 31
field mean 2.4258064516129e-005
field stddev 9.389887033113e-005
field min 0
field max 0.000376
field sum 0.000752
field sqrsum 2.82752e-007
attr interpolationmode none
attr source queueingTime(packetPopped)
attr title "queueing times, histogram"
attr unit s
bin	-inf	0
bin	0	29
bin	1e-005	0
bin	2e-005	0
bin	3e-005	0
bin	4e-005	0
bin	5e-005	0
bin	6e-005	0
bin	7e-005	0
bin	8e-005	0
bin	9e-005	0
bin	0.0001	0
bin	0.00011	0
bin	0.00012	0
bin	0.00013	0
bin	0.00014	0
bin	0.00015	0
bin	0.00016	0
bin	0.00017	0
bin	0.00018	0
bin	0.00019	0
bin	0.0002	0
bin	0.00021	0
bin	0.00022	0
bin	0.00023	0
bin	0.00024	0
bin	0.00025	0
bin	0.00026	0
bin	0.00027	0
bin	0.00028	0
bin	0.00029	0
bin	0.0003	0
bin	0.00031	0
bin	0.00032	0
bin	0.00033	0
bin	0.00034	0
bin	0.00035	0
bin	0.00036	0
bin	0.00037	2
bin	0.00038	0
bin	0.00039	0
bin	0.0004	0
bin	0.00041	0
bin	0.00042	0
bin	0.00043	0
bin	0.00044	0
bin	0.00045	0
bin	0.00046	0
bin	0.00047	0
scalar scenario.client[0].ppp[1].ppp.queue queueLength:max 1
attr interpolationmode sample-hold
attr source "count(packetPushed) - count(packetPopped) - count(packetRemoved) - count(packetDropped)"
attr title "queue length, max"
scalar scenario.client[0].ppp[1].ppp.queue queueLength:timeavg 2.3921152424863e-008
attr interpolationmode sample-hold
attr source "count(packetPushed) - count(packetPopped) - count(packetRemoved) - count(packetDropped)"
attr title "queue length, timeavg"
scalar scenario.client[0].ppp[1].ppp.queue packetPushed:count 31
attr interpolationmode none
attr title "packet pushed, count"
scalar scenario.client[0].ppp[1].ppp.queue packetPushed:sum(packetBytes) 1265
attr interpolationmode none
attr title "packet pushed, sum(packetBytes)"
scalar scenario.client[0].ppp[1].ppp.queue packetDropQueueOverflow:count 0
attr interpolationmode none
attr source packetDropReasonIsQueueOverflow(packetDropped)
attr title "packet drops: queue overflow, count"
scalar scenario.client[0].ppp[1].ppp.queue packetDropQueueOverflow:sum(packetBytes) 0
attr interpolationmode none
attr source packetDropReasonIsQueueOverflow(packetDropped)
attr title "packet drops: queue overflow, sum(packetBytes)"
scalar scenario.client[0].ppp[1].ppp.queue packetRemoved:count 0
attr interpolationmode none
attr title "packets removed, count"
scalar scenario.client[0].ppp[1].ppp.queue packetRemoved:sum(packetBytes) 0
attr interpolationmode none
attr title "packets removed, sum(packetBytes)"
scalar scenario.client[0].ppp[1].ppp txPk:count 31
attr interpolationmode none
attr source packetSentToLower
attr title "packets transmitted, count"
scalar scenario.client[0].ppp[1].ppp txPk:sum(packetBytes) 1482
attr interpolationmode none
attr source packetSentToLower
attr title "packets transmitted, sum(packetBytes)"
scalar scenario.client[0].ppp[1].ppp rcvdPkFromHl:count 31
attr interpolationmode none
attr source packetReceivedFromUpper
attr title "packets received from higher layer, count"
scalar scenario.client[0].ppp[1].ppp rcvdPkFromHl:sum(packetBytes) 1265
attr interpolationmode none
attr source packetReceivedFromUpper
attr title "packets received from higher layer, sum(packetBytes)"
scalar scenario.client[0].ppp[1].ppp passedUpPk:count 31
attr interpolationmode none
attr source packetSentToUpper
attr title "packets passed to higher layer, count"
scalar scenario.client[0].ppp[1].ppp passedUpPk:sum(packetBytes) 1262
attr interpolationmode none
attr source packetSentToUpper
attr title "packets passed to higher layer, sum(packetBytes)"
scalar scenario.client[0].ppp[1].ppp packetDropIncorrectlyReceived:count 0
attr interpolationmode none
attr source packetDropReasonIsIncorrectlyReceived(packetDropped)
attr title "packet drop: incorrectly received, count"
scalar scenario.client[0].ppp[1].ppp packetDropIncorrectlyReceived:sum(packetBytes) 0
attr interpolationmode none
attr source packetDropReasonIsIncorrectlyReceived(packetDropped)
attr title "packet drop: incorrectly received, sum(packetBytes)"
scalar scenario.client[0].ppp[1].ppp packetDropInterfaceDown:count 0
attr interpolationmode none
attr source packetDropReasonIsInterfaceDown(packetDropped)
attr title "packet drop: interface down, count"
scalar scenario.client[0].ppp[1].ppp packetDropInterfaceDown:sum(packetBytes) 0
attr interpolationmode none
attr source packetDropReasonIsInterfaceDown(packetDropped)
attr title "packet drop: interface down, sum(packetBytes)"
scalar scenario.client[0].ppp[1].ppp rxPkOk:count 31
attr interpolationmode none
attr source rxPkOk
attr title "packets received OK, count"
scalar scenario.client[0].ppp[1].ppp rxPkOk:sum(packetBytes) 1479
attr interpolationmode none
attr source rxPkOk
attr title "packets received OK, sum(packetBytes)"
scalar scenario.client[0].ppp[1].ppp transmissionState:timeavg 3.7713522282661e-007
attr interpolationmode sample-hold
attr source transmissionStateChanged
attr title "tx state, timeavg"
scalar scenario.client[0].ppp[2].ppp.queue packetPopped:count 32
attr interpolationmode none
attr title "packet popped, count"
scalar scenario.client[0].ppp[2].ppp.queue packetPopped:sum(packetBytes) 1306
attr interpolationmode none
attr title "packet popped, sum(packetBytes)"
statistic scenario.client[0].ppp[2].ppp.queue queueingTime:histogram
field count 32
field mean 2.35e-005
field stddev 9.2471442845537e-005
field min 0
field max 0.000376
field sum 0.000752
field sqrsum 2.82752e-007
attr interpolationmode none
attr source queueingTime(packetPopped)
attr title "queueing times, histogram"
attr unit s
bin	-inf	0
bin	0	30
bin	1e-005	0
bin	2e-005	0
bin	3e-005	0
bin	4e-005	0
bin	5e-005	0
bin	6e-005	0
bin	7e-005	0
bin	8e-005	0
bin	9e-005	0
bin	0.0001	0
bin	0.00011	0
bin	0.00012	0
bin	0.00013	0
bin	0.00014	0
bin	0.00015	0
bin	0.00016	0
bin	0.00017	0
bin	0.00018	0
bin	0.00019	0
bin	0.0002	0
bin	0.00021	0
bin	0.00022	0
bin	0.00023	0
bin	0.00024	0
bin	0.00025	0
bin	0.00026	0
bin	0.00027	0
bin	0.00028	0
bin	0.00029	0
bin	0.0003	0
bin	0.00031	0
bin	0.00032	0
bin	0.00033	0
bin	0.00034	0
bin	0.00035	0
bin	0.00036	0
bin	0.00037	2
bin	0.00038	0
bin	0.00039	0
bin	0.0004	0
bin	0.00041	0
bin	0.00042	0
bin	0.00043	0
bin	0.00044	0
bin	0.00045	0
bin	0.00046	0
bin	0.00047	0
scalar scenario.client[0].ppp[2].ppp.queue queueLength:max 1
attr interpolationmode sample-hold
attr source "count(packetPushed) - count(packetPopped) - count(packetRemoved) - count(packetDropped)"
attr title "queue length, max"
scalar scenario.client[0].ppp[2].ppp.queue queueLength:timeavg 2.3921238742242e-008
attr interpolationmode sample-hold
attr source "count(packetPushed) - count(packetPopped) - count(packetRemoved) - count(packetDropped)"
attr title "queue length, timeavg"
scalar scenario.client[0].ppp[2].ppp.queue packetPushed:count 32
attr interpolationmode none
attr title "packet pushed, count"
scalar scenario.client[0].ppp[2].ppp.queue packetPushed:sum(packetBytes) 1306
attr interpolationmode none
attr title "packet pushed, sum(packetBytes)"
scalar scenario.client[0].ppp[2].ppp.queue packetDropQueueOverflow:count 0
attr interpolationmode none
attr source packetDropReasonIsQueueOverflow(packetDropped)
attr title "packet drops: queue overflow, count"
scalar scenario.client[0].ppp[2].ppp.queue packetDropQueueOverflow:sum(packetBytes) 0
attr interpolationmode none
attr source packetDropReasonIsQueueOverflow(packetDropped)
attr title "packet drops: queue overflow, sum(packetBytes)"
scalar scenario.client[0].ppp[2].ppp.queue packetRemoved:count 0
attr interpolationmode none
attr title "packets removed, count"
scalar scenario.client[0].ppp[2].ppp.queue packetRemoved:sum(packetBytes) 0
attr interpolationmode none
attr title "packets removed, sum(packetBytes)"
scalar scenario.client[0].ppp[2].ppp txPk:count 32
attr interpolationmode none
attr source packetSentToLower
attr title "packets transmitted, count"
scalar scenario.client[0].ppp[2].ppp txPk:sum(packetBytes) 1530
attr interpolationmode none
attr source packetSentToLower
attr title "packets transmitted, sum(packetBytes)"
scalar scenario.client[0].ppp[2].ppp rcvdPkFromHl:count 32
attr interpolationmode none
attr source packetReceivedFromUpper
attr title "packets received from higher layer, count"
scalar scenario.client[0].ppp[2].ppp rcvdPkFromHl:sum(packetBytes) 1306
attr interpolationmode none
attr source packetReceivedFromUpper
attr title "packets received from higher layer, sum(packetBytes)"
scalar scenario.client[0].ppp[2].ppp passedUpPk:count 32
attr interpolationmode none
attr source packetSentToUpper
attr title "packets passed to higher layer, count"
scalar scenario.client[0].ppp[2].ppp passedUpPk:sum(packetBytes) 1301
attr interpolationmode none
attr source packetSentToUpper
attr title "packets passed to higher layer, sum(packetBytes)"
scalar scenario.client[0].ppp[2].ppp packetDropIncorrectlyReceived:count 0
attr interpolationmode none
attr source packetDropReasonIsIncorrectlyReceived(packetDropped)
attr title "packet drop: incorrectly received, count"
scalar scenario.client[0].ppp[2].ppp packetDropIncorrectlyReceived:sum(packetBytes) 0
attr interpolationmode none
attr source packetDropReasonIsIncorrectlyReceived(packetDropped)
attr title "packet drop: incorrectly received, sum(packetBytes)"
scalar scenario.client[0].ppp[2].ppp packetDropInterfaceDown:count 0
attr interpolationmode none
attr source packetDropReasonIsInterfaceDown(packetDropped)
attr title "packet drop: interface down, count"
scalar scenario.client[0].ppp[2].ppp packetDropInterfaceDown:sum(packetBytes) 0
attr interpolationmode none
attr source packetDropReasonIsInterfaceDown(packetDropped)
attr title "packet drop: interface down, sum(packetBytes)"
scalar scenario.client[0].ppp[2].ppp rxPkOk:count 32
attr interpolationmode none
attr source rxPkOk
attr title "packets received OK, count"
scalar scenario.client[0].ppp[2].ppp rxPkOk:sum(packetBytes) 1525
attr interpolationmode none
attr source rxPkOk
attr title "packets received OK, sum(packetBytes)"
scalar scenario.client[0].ppp[2].ppp transmissionState:timeavg 3.8935012882909e-007
attr interpolationmode sample-hold
attr source transmissionStateChanged
attr title "tx state, timeavg"
scalar scenario.client[0].ppp[3].ppp.queue packetPopped:count 9
attr interpolationmode none
attr title "packet popped, count"
scalar scenario.client[0].ppp[3].ppp.queue packetPopped:sum(packetBytes) 373
attr interpolationmode none
attr title "packet popped, sum(packetBytes)"
statistic scenario.client[0].ppp[3].ppp.queue queueingTime:histogram
field count 9
field mean 0
field stddev 0
field min 0
field max 0
field sum 0
field sqrsum 0
attr interpolationmode none
attr source queueingTime(packetPopped)
attr title "queueing times, histogram"
attr unit s
bin	-inf	0
bin	-0.5	0
bin	-0.48	0
bin	-0.46	0
bin	-0.44	0
bin	-0.42	0
bin	-0.4	0
bin	-0.38	0
bin	-0.36	0
bin	-0.34	0
bin	-0.32	0
bin	-0.3	0
bin	-0.28	0
bin	-0.26	0
bin	-0.24	0
bin	-0.22	0
bin	-0.2	0
bin	-0.18	0
bin	-0.16	0
bin	-0.14	0
bin	-0.12	0
bin	-0.1	0
bin	-0.08	0
bin	-0.06	0
bin	-0.04	0
bin	-0.02	0
bin	0	9
bin	0.02	0
bin	0.04	0
bin	0.06	0
bin	0.08	0
bin	0.1	0
bin	0.12	0
bin	0.14	0
bin	0.16	0
bin	0.18	0
bin	0.2	0
bin	0.22	0
bin	0.24	0
bin	0.26	0
bin	0.28	0
bin	0.3	0
bin	0.32	0
bin	0.34	0
bin	0.36	0
bin	0.38	0
bin	0.4	0
bin	0.42	0
bin	0.44	0
bin	0.46	0
bin	0.48	0
bin	0.5	0
scalar scenario.client[0].ppp[3].ppp.queue queueLength:max 1
attr interpolationmode sample-hold
attr source "count(packetPushed) - count(packetPopped) - count(packetRemoved) - count(packetDropped)"
attr title "queue length, max"
scalar scenario.client[0].ppp[3].ppp.queue queueLength:timeavg 0
attr interpolationmode sample-hold
attr source "count(packetPushed) - count(packetPopped) - count(packetRemoved) - count(packetDropped)"
attr title "queue length, timeavg"
scalar scenario.client[0].ppp[3].ppp.queue packetPushed:count 9
attr interpolationmode none
attr title "packet pushed, count"
scalar scenario.client[0].ppp[3].ppp.queue packetPushed:sum(packetBytes) 373
attr interpolationmode none
attr title "packet pushed, sum(packetBytes)"
scalar scenario.client[0].ppp[3].ppp.queue packetDropQueueOverflow:count 0
attr interpolationmode none
attr source packetDropReasonIsQueueOverflow(packetDropped)
attr title "packet drops: queue overflow, count"
scalar scenario.client[0].ppp[3].ppp.queue packetDropQueueOverflow:sum(packetBytes) 0
attr interpolationmode none
attr source packetDropReasonIsQueueOverflow(packetDropped)
attr title "packet drops: queue overflow, sum(packetBytes)"
scalar scenario.client[0].ppp[3].ppp.queue packetRemoved:count 0
attr interpolationmode none
attr title "packets removed, count"
scalar scenario.client[0].ppp[3].ppp.queue packetRemoved:sum(packetBytes) 0
attr interpolationmode none
attr title "packets removed, sum(packetBytes)"
scalar scenario.client[0].ppp[3].ppp txPk:count 9
attr interpolationmode none
attr source packetSentToLower
attr title "packets transmitted, count"
scalar scenario.client[0].ppp[3].ppp txPk:sum(packetBytes) 436
attr interpolationmode none
attr source packetSentToLower
attr title "packets transmitted, sum(packetBytes)"
scalar scenario.client[0].ppp[3].ppp rcvdPkFromHl:count 9
attr interpolationmode none
attr source packetReceivedFromUpper
attr title "packets received from higher layer, count"
scalar scenario.client[0].ppp[3].ppp rcvdPkFromHl:sum(packetBytes) 373
attr interpolationmode none
attr source packetReceivedFromUpper
attr title "packets received from higher layer, sum(packetBytes)"
scalar scenario.client[0].ppp[3].ppp passedUpPk:count 9
attr interpolationmode none
attr source packetSentToUpper
attr title "packets passed to higher layer, count"
scalar scenario.client[0].ppp[3].ppp passedUpPk:sum(packetBytes) 371
attr interpolationmode none
attr source packetSentToUpper
attr title "packets passed to higher layer, sum(packetBytes)"
scalar scenario.client[0].ppp[3].ppp packetDropIncorrectlyReceived:count 0
attr interpolationmode none
attr source packetDropReasonIsIncorrectlyReceived(packetDropped)
attr title "packet drop: incorrectly received, count"
scalar scenario.client[0].ppp[3].ppp packetDropIncorrectlyReceived:sum(packetBytes) 0
attr interpolationmode none
attr source packetDropReasonIsIncorrectlyReceived(packetDropped)
attr title "packet drop: incorrectly received, sum(packetBytes)"
scalar scenario.client[0].ppp[3].ppp packetDropInterfaceDown:count 0
attr interpolationmode none
attr source packetDropReasonIsInterfaceDown(packetDropped)
attr title "packet drop: interface down, count"
scalar scenario.client[0].ppp[3].ppp packetDropInterfaceDown:sum(packetBytes) 0
attr interpolationmode none
attr source packetDropReasonIsInterfaceDown(packetDropped)
attr title "packet drop: interface down, sum(packetBytes)"
scalar scenario.client[0].ppp[3].ppp rxPkOk:count 9
attr interpolationmode none
attr source rxPkOk
attr title "packets received OK, count"
scalar scenario.client[0].ppp[3].ppp rxPkOk:sum(packetBytes) 434
attr interpolationmode none
attr source rxPkOk
attr title "packets received OK, sum(packetBytes)"
scalar scenario.client[0].ppp[3].ppp transmissionState:timeavg 1.1095206285587e-007
attr interpolationmode sample-hold
attr source transmissionStateChanged
attr title "tx state, timeavg"
scalar scenario.client[0].ipv4.ip packetDropAddressResolutionFailed:count 0
attr interpolationmode none
attr source packetDropReasonIsAddressResolutionFailed(packetDropped)
attr title "packet drop: address resolution failed, count"
scalar scenario.client[0].ipv4.ip packetDropAddressResolutionFailed:sum(packetBytes) 0
attr interpolationmode none
attr source packetDropReasonIsAddressResolutionFailed(packetDropped)
attr title "packet drop: address resolution failed, sum(packetBytes)"
scalar scenario.client[0].ipv4.ip packetDropHopLimitReached:count 0
attr interpolationmode none
attr source packetDropReasonIsHopLimitReached(packetDropped)
attr title "packet drop: hop limit reached, count"
scalar scenario.client[0].ipv4.ip packetDropHopLimitReached:sum(packetBytes) 0
attr interpolationmode none
attr source packetDropReasonIsHopLimitReached(packetDropped)
attr title "packet drop: hop limit reached, sum(packetBytes)"
scalar scenario.client[0].ipv4.ip packetDropForwardingDisabled:count 0
attr interpolationmode none
attr source packetDropReasonIsForwardingDisabled(packetDropped)
attr title "packet drop: forwarding disabled, count"
scalar scenario.client[0].ipv4.ip packetDropForwardingDisabled:sum(packetBytes) 0
attr interpolationmode none
attr source packetDropReasonIsForwardingDisabled(packetDropped)
attr title "packet drop: forwarding disabled, sum(packetBytes)"
scalar scenario.client[0].ipv4.ip packetDropNoInterfaceFound:count 0
attr interpolationmode none
attr source packetDropReasonIsNoInterfaceFound(packetDropped)
attr title "packet drop: no interface found, count"
scalar scenario.client[0].ipv4.ip packetDropNoInterfaceFound:sum(packetBytes) 0
attr interpolationmode none
attr source packetDropReasonIsNoInterfaceFound(packetDropped)
attr title "packet drop: no interface found, sum(packetBytes)"
scalar scenario.client[0].ipv4.ip packetDropNoRouteFound:count 0
attr interpolationmode none
attr source packetDropReasonIsNoRouteFound(packetDropped)
attr title "packet drop: no route found, count"
scalar scenario.client[0].ipv4.ip packetDropNoRouteFound:sum(packetBytes) 0
attr interpolationmode none
attr source packetDropReasonIsNoRouteFound(packetDropped)
attr title "packet drop: no route found, sum(packetBytes)"
scalar scenario.client[0].ipv4.ip packetDropUndefined:count 0
attr interpolationmode none
attr source packetDropReasonIsUndefined(packetDropped)
attr title "packet drop: undefined, count"
scalar scenario.client[0].ipv4.ip packetDropUndefined:sum(packetBytes) 0
attr interpolationmode none
attr source packetDropReasonIsUndefined(packetDropped)
attr title "packet drop: undefined, sum(packetBytes)"
scalar scenario.client[0].ipv4.arp arpReplySent:count 0
attr source arpReplySent
attr title "ARP replies sent, count"
scalar scenario.client[0].ipv4.arp arpReplySent:sum(packetBytes) 0
attr source arpReplySent
attr title "ARP replies sent, sum(packetBytes)"
scalar scenario.client[0].ipv4.arp arpRequestSent:count 0
attr source arpRequestSent
attr title "ARP request sent, count"
scalar scenario.client[0].ipv4.arp arpRequestSent:sum(packetBytes) 0
attr source arpRequestSent
attr title "ARP request sent, sum(packetBytes)"
scalar scenario.client[0].ipv4.arp arpResolutionFailed:count 0
attr title "ARP failed resolutions, count"
scalar scenario.client[0].ipv4.arp arpResolutionCompleted:count 0
attr title "ARP completed resolutions, count"
scalar scenario.client[0].ipv4.arp arpResolutionInitiated:count 0
attr title "ARP initiated resolutions, count"
scalar scenario.client[0].udp packetReceived:count 0
attr interpolationmode none
attr source packetReceived
attr title "packets received, count"
scalar scenario.client[0].udp packetReceived:sum(packetBytes) 0
attr interpolationmode none
attr source packetReceived
attr title "packets received, sum(packetBytes)"
scalar scenario.client[0].udp packetSent:count 0
attr interpolationmode none
attr source packetSent
attr title "packets sent, count"
scalar scenario.client[0].udp packetSent:sum(packetBytes) 0
attr interpolationmode none
attr source packetSent
attr title "packets sent, sum(packetBytes)"
scalar scenario.client[0].udp passedUpPk:count 0
attr interpolationmode none
attr source packetSentToUpper
attr title "packets passed up, count"
scalar scenario.client[0].udp droppedPkWrongPort:count 0
attr interpolationmode none
attr source packetDropReasonIsNoPortFound(packetDropped)
attr title "packets dropped (wrong port), count"
scalar scenario.client[0].udp droppedPkBadChecksum:count 0
attr interpolationmode none
attr source packetDropReasonIsIncorrectlyReceived(packetDropped)
attr title "packets dropped (checksum error), count"
scalar scenario.client[1].lo[0].lo rcvdPkFromHl:count 0
attr interpolationmode none
attr source packetReceivedFromUpper
attr title "packets received from higher layer, count"
scalar scenario.client[1].lo[0].lo rcvdPkFromHl:sum(packetBytes) 0
attr interpolationmode none
attr source packetReceivedFromUpper
attr title "packets received from higher layer, sum(packetBytes)"
scalar scenario.client[1].lo[0].lo passedUpPk:count 0
attr interpolationmode none
attr source packetSentToUpper
attr title "packets passed to higher layer, count"
scalar scenario.client[1].lo[0].lo passedUpPk:sum(packetBytes) 0
attr interpolationmode none
attr source packetSentToUpper
attr title "packets passed to higher layer, sum(packetBytes)"
scalar scenario.client[1].ppp[0].ppp.queue packetPopped:count 31
attr interpolationmode none
attr title "packet popped, count"
scalar scenario.client[1].ppp[0].ppp.queue packetPopped:sum(packetBytes) 1262
attr interpolationmode none
attr title "packet popped, sum(packetBytes)"
statistic scenario.client[1].ppp[0].ppp.queue queueingTime:histogram
field count 31
field mean 4.8516129032258e-005
field stddev 0.00012813218980614
field min 0
field max 0.000376
field sum 0.001504
field sqrsum 5.65504e-007
attr interpolationmode none
attr source queueingTime(packetPopped)
attr title "queueing times, histogram"
attr unit s
bin	-inf	0
bin	0	27
bin	1e-005	0
bin	2e-005	0
bin	3e-005	0
bin	4e-005	0
bin	5e-005	0
bin	6e-005	0
bin	7e-005	0
bin	8e-005	0
bin	9e-005	0
bin	0.0001	0
bin	0.00011	0
bin	0.00012	0
bin	0.00013	0
bin	0.00014	0
bin	0.00015	0
bin	0.00016	0
bin	0.00017	0
bin	0.00018	0
bin	0.00019	0
bin	0.0002	0
bin	0.00021	0
bin	0.00022	0
bin	0.00023	0
bin	0.00024	0
bin	0.00025	0
bin	0.00026	0
bin	0.00027	0
bin	0.00028	0
bin	0.00029	0
bin	0.0003	0
bin	0.00031	0
bin	0.00032	0
bin	0.00033	0
bin	0.00034	0
bin	0.00035	0
bin	0.00036	0
bin	0.00037	4
bin	0.00038	0
bin	0.00039	0
bin	0.0004	0
bin	0.00041	0
bin	0.00042	0
bin	0.00043	0
bin	0.00044	0
bin	0.00045	0
bin	0.00046	0
bin	0.00047	0
scalar scenario.client[1].ppp[0].ppp.queue queueLength:max 1
attr interpolationmode sample-hold
attr source "count(packetPushed) - count(packetPopped) - count(packetRemoved) - count(packetDropped)"
attr title "queue length, max"
scalar scenario.client[1].ppp[0].ppp.queue queueLength:timeavg 4.7841716558205e-008
attr interpolationmode sample-hold
attr source "count(packetPushed) - count(packetPopped) - count(packetRemoved) - count(packetDropped)"
attr title "queue length, timeavg"
scalar scenario.client[1].ppp[0].ppp.queue packetPushed:count 31
attr interpolationmode none
attr title "packet pushed, count"
scalar scenario.client[1].ppp[0].ppp.queue packetPushed:sum(packetBytes) 1262
attr interpolationmode none
attr title "packet pushed, sum(packetBytes)"
scalar scenario.client[1].ppp[0].ppp.queue packetDropQueueOverflow:count 0
attr interpolationmode none
attr source packetDropReasonIsQueueOverflow(packetDropped)
attr title "packet drops: queue overflow, count"
scalar scenario.client[1].ppp[0].ppp.queue packetDropQueueOverflow:sum(packetBytes) 0
attr interpolationmode none
attr source packetDropReasonIsQueueOverflow(packetDropped)
attr title "packet drops: queue overflow, sum(packetBytes)"
scalar scenario.client[1].ppp[0].ppp.queue packetRemoved:count 0
attr interpolationmode none
attr title "packets removed, count"
scalar scenario.client[1].ppp[0].ppp.queue packetRemoved:sum(packetBytes) 0
attr interpolationmode none
attr title "packets removed, sum(packetBytes)"
scalar scenario.client[1].ppp[0].ppp txPk:count 31
attr interpolationmode none
attr source packetSentToLower
attr title "packets transmitted, count"
scalar scenario.client[1].ppp[0].ppp txPk:sum(packetBytes) 1479
attr interpolationmode none
attr source packetSentToLower
attr title "packets transmitted, sum(packetBytes)"
scalar scenario.client[1].ppp[0].ppp rcvdPkFromHl:count 31
attr interpolationmode none
attr source packetReceivedFromUpper
attr title "packets received from higher layer, count"
scalar scenario.client[1].ppp[0].ppp rcvdPkFromHl:sum(packetBytes) 1262
attr interpolationmode none
attr source packetReceivedFromUpper
attr title "packets received from higher layer, sum(packetBytes)"
scalar scenario.client[1].ppp[0].ppp passedUpPk:count 31
attr interpolationmode none
attr source packetSentToUpper
attr title "packets passed to higher layer, count"
scalar scenario.client[1].ppp[0].ppp passedUpPk:sum(packetBytes) 1265
attr interpolationmode none
attr source packetSentToUpper
attr title "packets passed to higher layer, sum(packetBytes)"
scalar scenario.client[1].ppp[0].ppp packetDropIncorrectlyReceived:count 0
attr interpolationmode none
attr source packetDropReasonIsIncorrectlyReceived(packetDropped)
attr title "packet drop: incorrectly received, count"
scalar scenario.client[1].ppp[0].ppp packetDropIncorrectlyReceived:sum(packetBytes) 0
attr interpolationmode none
attr source packetDropReasonIsIncorrectlyReceived(packetDropped)
attr title "packet drop: incorrectly received, sum(packetBytes)"
scalar scenario.client[1].ppp[0].ppp packetDropInterfaceDown:count 0
attr interpolationmode none
attr source packetDropReasonIsInterfaceDown(packetDropped)
attr title "packet drop: interface down, count"
scalar scenario.client[1].ppp[0].ppp packetDropInterfaceDown:sum(packetBytes) 0
attr interpolationmode none
attr source packetDropReasonIsInterfaceDown(packetDropped)
attr title "packet drop: interface down, sum(packetBytes)"
scalar scenario.client[1].ppp[0].ppp rxPkOk:count 31
attr interpolationmode none
attr source rxPkOk
attr title "packets received OK, count"
scalar scenario.client[1].ppp[0].ppp rxPkOk:sum(packetBytes) 1482
attr interpolationmode none
attr source rxPkOk
attr title "packets received OK, sum(packetBytes)"
scalar scenario.client[1].ppp[0].ppp transmissionState:timeavg 3.7637179120145e-007
attr interpolationmode sample-hold
attr source transmissionStateChanged
attr title "tx state, timeavg"
scalar scenario.client[1].ppp[1].ppp.queue packetPopped:count 20
attr interpolationmode none
attr title "packet popped, count"
scalar scenario.client[1].ppp[1].ppp.queue packetPopped:sum(packetBytes) 818
attr interpolationmode none
attr title "packet popped, sum(packetBytes)"
statistic scenario.client[1].ppp[1].ppp.queue queueingTime:histogram
field count 20
field mean 5.64e-005
field stddev 0.00013774667824823
field min 0
field max 0.000376
field sum 0.001128
field sqrsum 4.24128e-007
attr interpolationmode none
attr source queueingTime(packetPopped)
attr title "queueing times, histogram"
attr unit s
bin	-inf	0
bin	0	17
bin	1e-005	0
bin	2e-005	0
bin	3e-005	0
bin	4e-005	0
bin	5e-005	0
bin	6e-005	0
bin	7e-005	0
bin	8e-005	0
bin	9e-005	0
bin	0.0001	0
bin	0.00011	0
bin	0.00012	0
bin	0.00013	0
bin	0.00014	0
bin	0.00015	0
bin	0.00016	0
bin	0.00017	0
bin	0.00018	0
bin	0.00019	0
bin	0.0002	0
bin	0.00021	0
bin	0.00022	0
bin	0.00023	0
bin	0.00024	0
bin	0.00025	0
bin	0.00026	0
bin	0.00027	0
bin	0.00028	0
bin	0.00029	0
bin	0.0003	0
bin	0.00031	0
bin	0.00032	0
bin	0.00033	0
bin	0.00034	0
bin	0.00035	0
bin	0.00036	0
bin	0.00037	3
bin	0.00038	0
bin	0.00039	0
bin	0.0004	0
bin	0.00041	0
bin	0.00042	0
bin	0.00043	0
bin	0.00044	0
bin	0.00045	0
bin	0.00046	0
bin	0.00047	0
scalar scenario.client[1].ppp[1].ppp.queue queueLength:max 1
attr interpolationmode sample-hold
attr source "count(packetPushed) - count(packetPopped) - count(packetRemoved) - count(packetDropped)"
attr title "queue length, max"
scalar scenario.client[1].ppp[1].ppp.queue queueLength:timeavg 3.5884360940101e-008
attr interpolationmode sample-hold
attr source "count(packetPushed) - count(packetPopped) - count(packetRemoved) - count(packetDropped)"
attr title "queue length, timeavg"
scalar scenario.client[1].ppp[1].ppp.queue packetPushed:count 20
attr interpolationmode none
attr title "packet pushed, count"
scalar scenario.client[1].ppp[1].ppp.queue packetPushed:sum(packetBytes) 818
attr interpolationmode none
attr title "packet pushed, sum(packetBytes)"
scalar scenario.client[1].ppp[1].ppp.queue packetDropQueueOverflow:count 0
attr interpolationmode none
attr source packetDropReasonIsQueueOverflow(packetDropped)
attr title "packet drops: queue overflow, count"
scalar scenario.client[1].ppp[1].ppp.queue packetDropQueueOverflow:sum(packetBytes) 0
attr interpolationmode none
attr source packetDropReasonIsQueueOverflow(packetDropped)
attr title "packet drops: queue overflow, sum(packetBytes)"
scalar scenario.client[1].ppp[1].ppp.queue packetRemoved:count 0
attr interpolationmode none
attr title "packets removed, count"
scalar scenario.client[1].ppp[1].ppp.queue packetRemoved:sum(packetBytes) 0
attr interpolationmode none
attr title "packets removed, sum(packetBytes)"
scalar scenario.client[1].ppp[1].ppp txPk:count 20
attr interpolationmode none
attr source packetSentToLower
attr title "packets transmitted, count"
scalar scenario.client[1].ppp[1].ppp txPk:sum(packetBytes) 958
attr interpolationmode none
attr source packetSentToLower
attr title "packets transmitted, sum(packetBytes)"
scalar scenario.client[1].ppp[1].ppp rcvdPkFromHl:count 20
attr interpolationmode none
attr source packetReceivedFromUpper
attr title "packets received from higher layer, count"
scalar scenario.client[1].ppp[1].ppp rcvdPkFromHl:sum(packetBytes) 818
attr interpolationmode none
attr source packetReceivedFromUpper
attr title "packets received from higher layer, sum(packetBytes)"
scalar scenario.client[1].ppp[1].ppp passedUpPk:count 20
attr interpolationmode none
attr source packetSentToUpper
attr title "packets passed to higher layer, count"
scalar scenario.client[1].ppp[1].ppp passedUpPk:sum(packetBytes) 818
attr interpolationmode none
attr source packetSentToUpper
attr title "packets passed to higher layer, sum(packetBytes)"
scalar scenario.client[1].ppp[1].ppp packetDropIncorrectlyReceived:count 0
attr interpolationmode none
attr source packetDropReasonIsIncorrectlyReceived(packetDropped)
attr title "packet drop: incorrectly received, count"
scalar scenario.client[1].ppp[1].ppp packetDropIncorrectlyReceived:sum(packetBytes) 0
attr interpolationmode none
attr source packetDropReasonIsIncorrectlyReceived(packetDropped)
attr title "packet drop: incorrectly received, sum(packetBytes)"
scalar scenario.client[1].ppp[1].ppp packetDropInterfaceDown:count 0
attr interpolationmode none
attr source packetDropReasonIsInterfaceDown(packetDropped)
attr title "packet drop: interface down, count"
scalar scenario.client[1].ppp[1].ppp packetDropInterfaceDown:sum(packetBytes) 0
attr interpolationmode none
attr source packetDropReasonIsInterfaceDown(packetDropped)
attr title "packet drop: interface down, sum(packetBytes)"
scalar scenario.client[1].ppp[1].ppp rxPkOk:count 20
attr interpolationmode none
attr source rxPkOk
attr title "packets received OK, count"
scalar scenario.client[1].ppp[1].ppp rxPkOk:sum(packetBytes) 958
attr interpolationmode none
attr source rxPkOk
attr title "packets received OK, sum(packetBytes)"
scalar scenario.client[1].ppp[1].ppp transmissionState:timeavg 2.4378916563285e-007
attr interpolationmode sample-hold
attr source transmissionStateChanged
attr title "tx state, timeavg"
scalar scenario.client[1].ppp[2].ppp.queue packetPopped:count 21
attr interpolationmode none
attr title "packet popped, count"
scalar scenario.client[1].ppp[2].ppp.queue packetPopped:sum(packetBytes) 859
attr interpolationmode none
attr title "packet popped, sum(packetBytes)"
statistic scenario.client[1].ppp[2].ppp.queue queueingTime:histogram
field count 21
field mean 3.5809523809524e-005
field stddev 0.00011309801901343
field min 0
field max 0.000376
field sum 0.000752
field sqrsum 2.82752e-007
attr interpolationmode none
attr source queueingTime(packetPopped)
attr title "queueing times, histogram"
attr unit s
bin	-inf	0
bin	0	19
bin	1e-005	0
bin	2e-005	0
bin	3e-005	0
bin	4e-005	0
bin	5e-005	0
bin	6e-005	0
bin	7e-005	0
bin	8e-005	0
bin	9e-005	0
bin	0.0001	0
bin	0.00011	0
bin	0.00012	0
bin	0.00013	0
bin	0.00014	0
bin	0.00015	0
bin	0.00016	0
bin	0.00017	0
bin	0.00018	0
bin	0.00019	0
bin	0.0002	0
bin	0.00021	0
bin	0.00022	0
bin	0.00023	0
bin	0.00024	0
bin	0.00025	0
bin	0.00026	0
bin	0.00027	0
bin	0.00028	0
bin	0.00029	0
bin	0.0003	0
bin	0.00031	0
bin	0.00032	0
bin	0.00033	0
bin	0.00034	0
bin	0.00035	0
bin	0.00036	0
bin	0.00037	2
bin	0.00038	0
bin	0.00039	0
bin	0.0004	0
bin	0.00041	0
bin	0.00042	0
bin	0.00043	0
bin	0.00044	0
bin	0.00045	0
bin	0.00046	0
bin	0.00047	0
scalar scenario.client[1].ppp[2].ppp.queue queueLength:max 1
attr interpolationmode sample-hold
attr source "count(packetPushed) - count(packetPopped) - count(packetRemoved) - count(packetDropped)"
attr title "queue length, max"
scalar scenario.client[1].ppp[2].ppp.queue queueLength:timeavg 2.3921555046636e-008
attr interpolationmode sample-hold
attr source "count(packetPushed) - count(packetPopped) - count(packetRemoved) - count(packetDropped)"
attr title "queue length, timeavg"
scalar scenario.client[1].ppp[2].ppp.queue packetPushed:count 21
attr interpolationmode none
attr title "packet pushed, count"
scalar scenario.client[1].ppp[2].ppp.queue packetPushed:sum(packetBytes) 859
attr interpolationmode none
attr title "packet pushed, sum(packetBytes)"
scalar scenario.client[1].ppp[2].ppp.queue packetDropQueueOverflow:count 0
attr interpolationmode none
attr source packetDropReasonIsQueueOverflow(packetDropped)
attr title "packet drops: queue overflow, count"
scalar scenario.client[1].ppp[2].ppp.queue packetDropQueueOverflow:sum(packetBytes) 0
attr interpolationmode none
attr source packetDropReasonIsQueueOverflow(packetDropped)
attr title "packet drops: queue overflow, sum(packetBytes)"
scalar scenario.client[1].ppp[2].ppp.queue packetRemoved:count 0
attr interpolationmode none
attr title "packets removed, count"
scalar scenario.client[1].ppp[2].ppp.queue packetRemoved:sum(packetBytes) 0
attr interpolationmode none
attr title "packets removed, sum(packetBytes)"
scalar scenario.client[1].ppp[2].ppp txPk:count 21
attr interpolationmode none
attr source packetSentToLower
attr title "packets transmitted, count"
scalar scenario.client[1].ppp[2].ppp txPk:sum(packetBytes) 1006
attr interpolationmode none
attr source packetSentToLower
attr title "packets transmitted, sum(packetBytes)"
scalar scenario.client[1].ppp[2].ppp rcvdPkFromHl:count 21
attr interpolationmode none
attr source packetReceivedFromUpper
attr title "packets received from higher layer, count"
scalar scenario.client[1].ppp[2].ppp rcvdPkFromHl:sum(packetBytes) 859
attr interpolationmode none
attr source packetReceivedFromUpper
attr title "packets received from higher layer, sum(packetBytes)"
scalar scenario.client[1].ppp[2].ppp passedUpPk:count 21
attr interpolationmode none
attr source packetSentToUpper
attr title "packets passed to higher layer, count"
scalar scenario.client[1].ppp[2].ppp passedUpPk:sum(packetBytes) 857
attr interpolationmode none
attr source packetSentToUpper
attr title "packets passed to higher layer, sum(packetBytes)"
scalar scenario.client[1].ppp[2].ppp packetDropIncorrectlyReceived:count 0
attr interpolationmode none
attr source packetDropReasonIsIncorrectlyReceived(packetDropped)
attr title "packet drop: incorrectly received, count"
scalar scenario.client[1].ppp[2].ppp packetDropIncorrectlyReceived:sum(packetBytes) 0
attr interpolationmode none
attr source packetDropReasonIsIncorrectlyReceived(packetDropped)
attr title "packet drop: incorrectly received, sum(packetBytes)"
scalar scenario.client[1].ppp[2].ppp packetDropInterfaceDown:count 0
attr interpolationmode none
attr source packetDropReasonIsInterfaceDown(packetDropped)
attr title "packet drop: interface down, count"
scalar scenario.client[1].ppp[2].ppp packetDropInterfaceDown:sum(packetBytes) 0
attr interpolationmode none
attr source packetDropReasonIsInterfaceDown(packetDropped)
attr title "packet drop: interface down, sum(packetBytes)"
scalar scenario.client[1].ppp[2].ppp rxPkOk:count 21
attr interpolationmode none
attr source rxPkOk
attr title "packets received OK, count"
scalar scenario.client[1].ppp[2].ppp rxPkOk:sum(packetBytes) 1004
attr interpolationmode none
attr source rxPkOk
attr title "packets received OK, sum(packetBytes)"
scalar scenario.client[1].ppp[2].ppp transmissionState:timeavg 2.5600407163533e-007
attr interpolationmode sample-hold
attr source transmissionStateChanged
attr title "tx state, timeavg"
scalar scenario.client[1].ppp[3].ppp.queue packetPopped:count 9
attr interpolationmode none
attr title "packet popped, count"
scalar scenario.client[1].ppp[3].ppp.queue packetPopped:sum(packetBytes) 373
attr interpolationmode none
attr title "packet popped, sum(packetBytes)"
statistic scenario.client[1].ppp[3].ppp.queue queueingTime:histogram
field count 9
field mean 0
field stddev 0
field min 0
field max 0
field sum 0
field sqrsum 0
attr interpolationmode none
attr source queueingTime(packetPopped)
attr title "queueing times, histogram"
attr unit s
bin	-inf	0
bin	-0.5	0
bin	-0.48	0
bin	-0.46	0
bin	-0.44	0
bin	-0.42	0
bin	-0.4	0
bin	-0.38	0
bin	-0.36	0
bin	-0.34	0
bin	-0.32	0
bin	-0.3	0
bin	-0.28	0
bin	-0.26	0
bin	-0.24	0
bin	-0.22	0
bin	-0.2	0
bin	-0.18	0
bin	-0.16	0
bin	-0.14	0
bin	-0.12	0
bin	-0.1	0
bin	-0.08	0
bin	-0.06	0
bin	-0.04	0
bin	-0.02	0
bin	0	9
bin	0.02	0
bin	0.04	0
bin	0.06	0
bin	0.08	0
bin	0.1	0
bin	0.12	0
bin	0.14	0
bin	0.16	0
bin	0.18	0
bin	0.2	0
bin	0.22	0
bin	0.24	0
bin	0.26	0
bin	0.28	0
bin	0.3	0
bin	0.32	0
bin	0.34	0
bin	0.36	0
bin	0.38	0
bin	0.4	0
bin	0.42	0
bin	0.44	0
bin	0.46	0
bin	0.48	0
bin	0.5	0
scalar scenario.client[1].ppp[3].ppp.queue queueLength:max 1
attr interpolationmode sample-hold
attr source "count(packetPushed) - count(packetPopped) - count(packetRemoved) - count(packetDropped)"
attr title "queue length, max"
scalar scenario.client[1].ppp[3].ppp.queue queueLength:timeavg 0
attr interpolationmode sample-hold
attr source "count(packetPushed) - count(packetPopped) - count(packetRemoved) - count(packetDropped)"
attr title "queue length, timeavg"
scalar scenario.client[1].ppp[3].ppp.queue packetPushed:count 9
attr interpolationmode none
attr title "packet pushed, count"
scalar scenario.client[1].ppp[3].ppp.queue packetPushed:sum(packetBytes) 373
attr interpolationmode none
attr title "packet pushed, sum(packetBytes)"
scalar scenario.client[1].ppp[3].ppp.queue packetDropQueueOverflow:count 0
attr interpolationmode none
attr source packetDropReasonIsQueueOverflow(packetDropped)
attr title "packet drops: queue overflow, count"
scalar scenario.client[1].ppp[3].ppp.queue packetDropQueueOverflow:sum(packetBytes) 0
attr interpolationmode none
attr source packetDropReasonIsQueueOverflow(packetDropped)
attr title "packet drops: queue overflow, sum(packetBytes)"
scalar scenario.client[1].ppp[3].ppp.queue packetRemoved:count 0
attr interpolationmode none
attr title "packets removed, count"
scalar scenario.client[1].ppp[3].ppp.queue packetRemoved:sum(packetBytes) 0
attr interpolationmode none
attr title "packets removed, sum(packetBytes)"
scalar scenario.client[1].ppp[3].ppp txPk:count 9
attr interpolationmode none
attr source packetSentToLower
attr title "packets transmitted, count"
scalar scenario.client[1].ppp[3].ppp txPk:sum(packetBytes) 436
attr interpolationmode none
attr source packetSentToLower
attr title "packets transmitted, sum(packetBytes)"
scalar scenario.client[1].ppp[3].ppp rcvdPkFromHl:count 9
attr interpolationmode none
attr source packetReceivedFromUpper
attr title "packets received from higher layer, count"
scalar scenario.client[1].ppp[3].ppp rcvdPkFromHl:sum(packetBytes) 373
attr interpolationmode none
attr source packetReceivedFromUpper
attr title "packets received from higher layer, sum(packetBytes)"
scalar scenario.client[1].ppp[3].ppp passedUpPk:count 9
attr interpolationmode none
attr source packetSentToUpper
attr title "packets passed to higher layer, count"
scalar scenario.client[1].ppp[3].ppp passedUpPk:sum(packetBytes) 371
attr interpolationmode none
attr source packetSentToUpper
attr title "packets passed to higher layer, sum(packetBytes)"
scalar scenario.client[1].ppp[3].ppp packetDropIncorrectlyReceived:count 0
attr interpolationmode none
attr source packetDropReasonIsIncorrectlyReceived(packetDropped)
attr title "packet drop: incorrectly received, count"
scalar scenario.client[1].ppp[3].ppp packetDropIncorrectlyReceived:sum(packetBytes) 0
attr interpolationmode none
attr source packetDropReasonIsIncorrectlyReceived(packetDropped)
attr title "packet drop: incorrectly received, sum(packetBytes)"
scalar scenario.client[1].ppp[3].ppp packetDropInterfaceDown:count 0
attr interpolationmode none
attr source packetDropReasonIsInterfaceDown(packetDropped)
attr title "packet drop: interface down, count"
scalar scenario.client[1].ppp[3].ppp packetDropInterfaceDown:sum(packetBytes) 0
attr interpolationmode none
attr source packetDropReasonIsInterfaceDown(packetDropped)
attr title "packet drop: interface down, sum(packetBytes)"
scalar scenario.client[1].ppp[3].ppp rxPkOk:count 9
attr interpolationmode none
attr source rxPkOk
attr title "packets received OK, count"
scalar scenario.client[1].ppp[3].ppp rxPkOk:sum(packetBytes) 434
attr interpolationmode none
attr source rxPkOk
attr title "packets received OK, sum(packetBytes)"
scalar scenario.client[1].ppp[3].ppp transmissionState:timeavg 1.1095206285587e-007
attr interpolationmode sample-hold
attr source transmissionStateChanged
attr title "tx state, timeavg"
scalar scenario.client[1].ipv4.ip packetDropAddressResolutionFailed:count 0
attr interpolationmode none
attr source packetDropReasonIsAddressResolutionFailed(packetDropped)
attr title "packet drop: address resolution failed, count"
scalar scenario.client[1].ipv4.ip packetDropAddressResolutionFailed:sum(packetBytes) 0
attr interpolationmode none
attr source packetDropReasonIsAddressResolutionFailed(packetDropped)
attr title "packet drop: address resolution failed, sum(packetBytes)"
scalar scenario.client[1].ipv4.ip packetDropHopLimitReached:count 0
attr interpolationmode none
attr source packetDropReasonIsHopLimitReached(packetDropped)
attr title "packet drop: hop limit reached, count"
scalar scenario.client[1].ipv4.ip packetDropHopLimitReached:sum(packetBytes) 0
attr interpolationmode none
attr source packetDropReasonIsHopLimitReached(packetDropped)
attr title "packet drop: hop limit reached, sum(packetBytes)"
scalar scenario.client[1].ipv4.ip packetDropForwardingDisabled:count 0
attr interpolationmode none
attr source packetDropReasonIsForwardingDisabled(packetDropped)
attr title "packet drop: forwarding disabled, count"
scalar scenario.client[1].ipv4.ip packetDropForwardingDisabled:sum(packetBytes) 0
attr interpolationmode none
attr source packetDropReasonIsForwardingDisabled(packetDropped)
attr title "packet drop: forwarding disabled, sum(packetBytes)"
scalar scenario.client[1].ipv4.ip packetDropNoInterfaceFound:count 0
attr interpolationmode none
attr source packetDropReasonIsNoInterfaceFound(packetDropped)
attr title "packet drop: no interface found, count"
scalar scenario.client[1].ipv4.ip packetDropNoInterfaceFound:sum(packetBytes) 0
attr interpolationmode none
attr source packetDropReasonIsNoInterfaceFound(packetDropped)
attr title "packet drop: no interface found, sum(packetBytes)"
scalar scenario.client[1].ipv4.ip packetDropNoRouteFound:count 0
attr interpolationmode none
attr source packetDropReasonIsNoRouteFound(packetDropped)
attr title "packet drop: no route found, count"
scalar scenario.client[1].ipv4.ip packetDropNoRouteFound:sum(packetBytes) 0
attr interpolationmode none
attr source packetDropReasonIsNoRouteFound(packetDropped)
attr title "packet drop: no route found, sum(packetBytes)"
scalar scenario.client[1].ipv4.ip packetDropUndefined:count 0
attr interpolationmode none
attr source packetDropReasonIsUndefined(packetDropped)
attr title "packet drop: undefined, count"
scalar scenario.client[1].ipv4.ip packetDropUndefined:sum(packetBytes) 0
attr interpolationmode none
attr source packetDropReasonIsUndefined(packetDropped)
attr title "packet drop: undefined, sum(packetBytes)"
scalar scenario.client[1].ipv4.arp arpReplySent:count 0
attr source arpReplySent
attr title "ARP replies sent, count"
scalar scenario.client[1].ipv4.arp arpReplySent:sum(packetBytes) 0
attr source arpReplySent
attr title "ARP replies sent, sum(packetBytes)"
scalar scenario.client[1].ipv4.arp arpRequestSent:count 0
attr source arpRequestSent
attr title "ARP request sent, count"
scalar scenario.client[1].ipv4.arp arpRequestSent:sum(packetBytes) 0
attr source arpRequestSent
attr title "ARP request sent, sum(packetBytes)"
scalar scenario.client[1].ipv4.arp arpResolutionFailed:count 0
attr title "ARP failed resolutions, count"
scalar scenario.client[1].ipv4.arp arpResolutionCompleted:count 0
attr title "ARP completed resolutions, count"
scalar scenario.client[1].ipv4.arp arpResolutionInitiated:count 0
attr title "ARP initiated resolutions, count"
scalar scenario.client[1].udp packetReceived:count 0
attr interpolationmode none
attr source packetReceived
attr title "packets received, count"
scalar scenario.client[1].udp packetReceived:sum(packetBytes) 0
attr interpolationmode none
attr source packetReceived
attr title "packets received, sum(packetBytes)"
scalar scenario.client[1].udp packetSent:count 0
attr interpolationmode none
attr source packetSent
attr title "packets sent, count"
scalar scenario.client[1].udp packetSent:sum(packetBytes) 0
attr interpolationmode none
attr source packetSent
attr title "packets sent, sum(packetBytes)"
scalar scenario.client[1].udp passedUpPk:count 0
attr interpolationmode none
attr source packetSentToUpper
attr title "packets passed up, count"
scalar scenario.client[1].udp droppedPkWrongPort:count 0
attr interpolationmode none
attr source packetDropReasonIsNoPortFound(packetDropped)
attr title "packets dropped (wrong port), count"
scalar scenario.client[1].udp droppedPkBadChecksum:count 0
attr interpolationmode none
attr source packetDropReasonIsIncorrectlyReceived(packetDropped)
attr title "packets dropped (checksum error), count"
scalar scenario.client[2].lo[0].lo rcvdPkFromHl:count 0
attr interpolationmode none
attr source packetReceivedFromUpper
attr title "packets received from higher layer, count"
scalar scenario.client[2].lo[0].lo rcvdPkFromHl:sum(packetBytes) 0
attr interpolationmode none
attr source packetReceivedFromUpper
attr title "packets received from higher layer, sum(packetBytes)"
scalar scenario.client[2].lo[0].lo passedUpPk:count 0
attr interpolationmode none
attr source packetSentToUpper
attr title "packets passed to higher layer, count"
scalar scenario.client[2].lo[0].lo passedUpPk:sum(packetBytes) 0
attr interpolationmode none
attr source packetSentToUpper
attr title "packets passed to higher layer, sum(packetBytes)"
scalar scenario.client[2].ppp[0].ppp.queue packetPopped:count 31
attr interpolationmode none
attr title "packet popped, count"
scalar scenario.client[2].ppp[0].ppp.queue packetPopped:sum(packetBytes) 1262
attr interpolationmode none
attr title "packet popped, sum(packetBytes)"
statistic scenario.client[2].ppp[0].ppp.queue queueingTime:histogram
field count 31
field mean 4.8516129032258e-005
field stddev 0.00012813218980614
field min 0
field max 0.000376
field sum 0.001504
field sqrsum 5.65504e-007
attr interpolationmode none
attr source queueingTime(packetPopped)
attr title "queueing times, histogram"
attr unit s
bin	-inf	0
bin	0	27
bin	1e-005	0
bin	2e-005	0
bin	3e-005	0
bin	4e-005	0
bin	5e-005	0
bin	6e-005	0
bin	7e-005	0
bin	8e-005	0
bin	9e-005	0
bin	0.0001	0
bin	0.00011	0
bin	0.00012	0
bin	0.00013	0
bin	0.00014	0
bin	0.00015	0
bin	0.00016	0
bin	0.00017	0
bin	0.00018	0
bin	0.00019	0
bin	0.0002	0
bin	0.00021	0
bin	0.00022	0
bin	0.00023	0
bin	0.00024	0
bin	0.00025	0
bin	0.00026	0
bin	0.00027	0
bin	0.00028	0
bin	0.00029	0
bin	0.0003	0
bin	0.00031	0
bin	0.00032	0
bin	0.00033	0
bin	0.00034	0
bin	0.00035	0
bin	0.00036	0
bin	0.00037	4
bin	0.00038	0
bin	0.00039	0
bin	0.0004	0
bin	0.00041	0
bin	0.00042	0
bin	0.00043	0
bin	0.00044	0
bin	0.00045	0
bin	0.00046	0
bin	0.00047	0
scalar scenario.client[2].ppp[0].ppp.queue queueLength:max 1
attr interpolationmode sample-hold
attr source "count(packetPushed) - count(packetPopped) - count(packetRemoved) - count(packetDropped)"
attr title "queue length, max"
scalar scenario.client[2].ppp[0].ppp.queue queueLength:timeavg 4.7842306231579e-008
attr interpolationmode sample-hold
attr source "count(packetPushed) - count(packetPopped) - count(packetRemoved) - count(packetDropped)"
attr title "queue length, timeavg"
scalar scenario.client[2].ppp[0].ppp.queue packetPushed:count 31
attr interpolationmode none
attr title "packet pushed, count"
scalar scenario.client[2].ppp[0].ppp.queue packetPushed:sum(packetBytes) 1262
attr interpolationmode none
attr title "packet pushed, sum(packetBytes)"
scalar scenario.client[2].ppp[0].ppp.queue packetDropQueueOverflow:count 0
attr interpolationmode none
attr source packetDropReasonIsQueueOverflow(packetDropped)
attr title "packet drops: queue overflow, count"
scalar scenario.client[2].ppp[0].ppp.queue packetDropQueueOverflow:sum(packetBytes) 0
attr interpolationmode none
attr source packetDropReasonIsQueueOverflow(packetDropped)
attr title "packet drops: queue overflow, sum(packetBytes)"
scalar scenario.client[2].ppp[0].ppp.queue packetRemoved:count 0
attr interpolationmode none
attr title "packets removed, count"
scalar scenario.client[2].ppp[0].ppp.queue packetRemoved:sum(packetBytes) 0
attr interpolationmode none
attr title "packets removed, sum(packetBytes)"
scalar scenario.client[2].ppp[0].ppp txPk:count 31
attr interpolationmode none
attr source packetSentToLower
attr title "packets transmitted, count"
scalar scenario.client[2].ppp[0].ppp txPk:sum(packetBytes) 1479
attr interpolationmode none
attr source packetSentToLower
attr title "packets transmitted, sum(packetBytes)"
scalar scenario.client[2].ppp[0].ppp rcvdPkFromHl:count 31
attr interpolationmode none
attr source packetReceivedFromUpper
attr title "packets received from higher layer, count"
scalar scenario.client[2].ppp[0].ppp rcvdPkFromHl:sum(packetBytes) 1262
attr interpolationmode none
attr source packetReceivedFromUpper
attr title "packets received from higher layer, sum(packetBytes)"
scalar scenario.client[2].ppp[0].ppp passedUpPk:count 31
attr interpolationmode none
attr source packetSentToUpper
attr title "packets passed to higher layer, count"
scalar scenario.client[2].ppp[0].ppp passedUpPk:sum(packetBytes) 1265
attr interpolationmode none
attr source packetSentToUpper
attr title "packets passed to higher layer, sum(packetBytes)"
scalar scenario.client[2].ppp[0].ppp packetDropIncorrectlyReceived:count 0
attr interpolationmode none
attr source packetDropReasonIsIncorrectlyReceived(packetDropped)
attr title "packet drop: incorrectly received, count"
scalar scenario.client[2].ppp[0].ppp packetDropIncorrectlyReceived:sum(packetBytes) 0
attr interpolationmode none
attr source packetDropReasonIsIncorrectlyReceived(packetDropped)
attr title "packet drop: incorrectly received, sum(packetBytes)"
scalar scenario.client[2].ppp[0].ppp packetDropInterfaceDown:count 0
attr interpolationmode none
attr source packetDropReasonIsInterfaceDown(packetDropped)
attr title "packet drop: interface down, count"
scalar scenario.client[2].ppp[0].ppp packetDropInterfaceDown:sum(packetBytes) 0
attr interpolationmode none
attr source packetDropReasonIsInterfaceDown(packetDropped)
attr title "packet drop: interface down, sum(packetBytes)"
scalar scenario.client[2].ppp[0].ppp rxPkOk:count 31
attr interpolationmode none
attr source rxPkOk
attr title "packets received OK, count"
scalar scenario.client[2].ppp[0].ppp rxPkOk:sum(packetBytes) 1482
attr interpolationmode none
attr source rxPkOk
attr title "packets received OK, sum(packetBytes)"
scalar scenario.client[2].ppp[0].ppp transmissionState:timeavg 3.7637179120145e-007
attr interpolationmode sample-hold
attr source transmissionStateChanged
attr title "tx state, timeavg"
scalar scenario.client[2].ppp[1].ppp.queue packetPopped:count 20
attr interpolationmode none
attr title "packet popped, count"
scalar scenario.client[2].ppp[1].ppp.queue packetPopped:sum(packetBytes) 818
attr interpolationmode none
attr title "packet popped, sum(packetBytes)"
statistic scenario.client[2].ppp[1].ppp.queue queueingTime:histogram
field count 20
field mean 5.64e-005
field stddev 0.00013774667824823
field min 0
field max 0.000376
field sum 0.001128
field sqrsum 4.24128e-007
attr interpolationmode none
attr source queueingTime(packetPopped)
attr title "queueing times, histogram"
attr unit s
bin	-inf	0
bin	0	17
bin	1e-005	0
bin	2e-005	0
bin	3e-005	0
bin	4e-005	0
bin	5e-005	0
bin	6e-005	0
bin	7e-005	0
bin	8e-005	0
bin	9e-005	0
bin	0.0001	0
bin	0.00011	0
bin	0.00012	0
bin	0.00013	0
bin	0.00014	0
bin	0.00015	0
bin	0.00016	0
bin	0.00017	0
bin	0.00018	0
bin	0.00019	0
bin	0.0002	0
bin	0.00021	0
bin	0.00022	0
bin	0.00023	0
bin	0.00024	0
bin	0.00025	0
bin	0.00026	0
bin	0.00027	0
bin	0.00028	0
bin	0.00029	0
bin	0.0003	0
bin	0.00031	0
bin	0.00032	0
bin	0.00033	0
bin	0.00034	0
bin	0.00035	0
bin	0.00036	0
bin	0.00037	3
bin	0.00038	0
bin	0.00039	0
bin	0.0004	0
bin	0.00041	0
bin	0.00042	0
bin	0.00043	0
bin	0.00044	0
bin	0.00045	0
bin	0.00046	0
bin	0.00047	0
scalar scenario.client[2].ppp[1].ppp.queue queueLength:max 1
attr interpolationmode sample-hold
attr source "count(packetPushed) - count(packetPopped) - count(packetRemoved) - count(packetDropped)"
attr title "queue length, max"
scalar scenario.client[2].ppp[1].ppp.queue queueLength:timeavg 3.5884361976644e-008
attr interpolationmode sample-hold
attr source "count(packetPushed) - count(packetPopped) - count(packetRemoved) - count(packetDropped)"
attr title "queue length, timeavg"
scalar scenario.client[2].ppp[1].ppp.queue packetPushed:count 20
attr interpolationmode none
attr title "packet pushed, count"
scalar scenario.client[2].ppp[1].ppp.queue packetPushed:sum(packetBytes) 818
attr interpolationmode none
attr title "packet pushed, sum(packetBytes)"
scalar scenario.client[2].ppp[1].ppp.queue packetDropQueueOverflow:count 0
attr interpolationmode none
attr source packetDropReasonIsQueueOverflow(packetDropped)
attr title "packet drops: queue overflow, count"
scalar scenario.client[2].ppp[1].ppp.queue packetDropQueueOverflow:sum(packetBytes) 0
attr interpolationmode none
attr source packetDropReasonIsQueueOverflow(packetDropped)
attr title "packet drops: queue overflow, sum(packetBytes)"
scalar scenario.client[2].ppp[1].ppp.queue packetRemoved:count 0
attr interpolationmode none
attr title "packets removed, count"
scalar scenario.client[2].ppp[1].ppp.queue packetRemoved:sum(packetBytes) 0
attr interpolationmode none
attr title "packets removed, sum(packetBytes)"
scalar scenario.client[2].ppp[1].ppp txPk:count 20
attr interpolationmode none
attr source packetSentToLower
attr title "packets transmitted, count"
scalar scenario.client[2].ppp[1].ppp txPk:sum(packetBytes) 958
attr interpolationmode none
attr source packetSentToLower
attr title "packets transmitted, sum(packetBytes)"
scalar scenario.client[2].ppp[1].ppp rcvdPkFromHl:count 20
attr interpolationmode none
attr source packetReceivedFromUpper
attr title "packets received from higher layer, count"
scalar scenario.client[2].ppp[1].ppp rcvdPkFromHl:sum(packetBytes) 818
attr interpolationmode none
attr source packetReceivedFromUpper
attr title "packets received from higher layer, sum(packetBytes)"
scalar scenario.client[2].ppp[1].ppp passedUpPk:count 20
attr interpolationmode none
attr source packetSentToUpper
attr title "packets passed to higher layer, count"
scalar scenario.client[2].ppp[1].ppp passedUpPk:sum(packetBytes) 818
attr interpolationmode none
attr source packetSentToUpper
attr title "packets passed to higher layer, sum(packetBytes)"
scalar scenario.client[2].ppp[1].ppp packetDropIncorrectlyReceived:count 0
attr interpolationmode none
attr source packetDropReasonIsIncorrectlyReceived(packetDropped)
attr title "packet drop: incorrectly received, count"
scalar scenario.client[2].ppp[1].ppp packetDropIncorrectlyReceived:sum(packetBytes) 0
attr interpolationmode none
attr source packetDropReasonIsIncorrectlyReceived(packetDropped)
attr title "packet drop: incorrectly received, sum(packetBytes)"
scalar scenario.client[2].ppp[1].ppp packetDropInterfaceDown:count 0
attr interpolationmode none
attr source packetDropReasonIsInterfaceDown(packetDropped)
attr title "packet drop: interface down, count"
scalar scenario.client[2].ppp[1].ppp packetDropInterfaceDown:sum(packetBytes) 0
attr interpolationmode none
attr source packetDropReasonIsInterfaceDown(packetDropped)
attr title "packet drop: interface down, sum(packetBytes)"
scalar scenario.client[2].ppp[1].ppp rxPkOk:count 20
attr interpolationmode none
attr source rxPkOk
attr title "packets received OK, count"
scalar scenario.client[2].ppp[1].ppp rxPkOk:sum(packetBytes) 958
attr interpolationmode none
attr source rxPkOk
attr title "packets received OK, sum(packetBytes)"
scalar scenario.client[2].ppp[1].ppp transmissionState:timeavg 2.4378916563285e-007
attr interpolationmode sample-hold
attr source transmissionStateChanged
attr title "tx state, timeavg"
scalar scenario.client[2].ppp[2].ppp.queue packetPopped:count 21
attr interpolationmode none
attr title "packet popped, count"
scalar scenario.client[2].ppp[2].ppp.queue packetPopped:sum(packetBytes) 859
attr interpolationmode none
attr title "packet popped, sum(packetBytes)"
statistic scenario.client[2].ppp[2].ppp.queue queueingTime:histogram
field count 21
field mean 3.5809523809524e-005
field stddev 0.00011309801901343
field min 0
field max 0.000376
field sum 0.000752
field sqrsum 2.82752e-007
attr interpolationmode none
attr source queueingTime(packetPopped)
attr title "queueing times, histogram"
attr unit s
bin	-inf	0
bin	0	19
bin	1e-005	0
bin	2e-005	0
bin	3e-005	0
bin	4e-005	0
bin	5e-005	0
bin	6e-005	0
bin	7e-005	0
bin	8e-005	0
bin	9e-005	0
bin	0.0001	0
bin	0.00011	0
bin	0.00012	0
bin	0.00013	0
bin	0.00014	0
bin	0.00015	0
bin	0.00016	0
bin	0.00017	0
bin	0.00018	0
bin	0.00019	0
bin	0.0002	0
bin	0.00021	0
bin	0.00022	0
bin	0.00023	0
bin	0.00024	0
bin	0.00025	0
bin	0.00026	0
bin	0.00027	0
bin	0.00028	0
bin	0.00029	0
bin	0.0003	0
bin	0.00031	0
bin	0.00032	0
bin	0.00033	0
bin	0.00034	0
bin	0.00035	0
bin	0.00036	0
bin	0.00037	2
bin	0.00038	0
bin	0.00039	0
bin	0.0004	0
bin	0.00041	0
bin	0.00042	0
bin	0.00043	0
bin	0.00044	0
bin	0.00045	0
bin	0.00046	0
bin	0.00047	0
scalar scenario.client[2].ppp[2].ppp.queue queueLength:max 1
attr interpolationmode sample-hold
attr source "count(packetPushed) - count(packetPopped) - count(packetRemoved) - count(packetDropped)"
attr title "queue length, max"
scalar scenario.client[2].ppp[2].ppp.queue queueLength:timeavg 2.3921852882448e-008
attr interpolationmode sample-hold
attr source "count(packetPushed) - count(packetPopped) - count(packetRemoved) - count(packetDropped)"
attr title "queue length, timeavg"
scalar scenario.client[2].ppp[2].ppp.queue packetPushed:count 21
attr interpolationmode none
attr title "packet pushed, count"
scalar scenario.client[2].ppp[2].ppp.queue packetPushed:sum(packetBytes) 859
attr interpolationmode none
attr title "packet pushed, sum(packetBytes)"
scalar scenario.client[2].ppp[2].ppp.queue packetDropQueueOverflow:count 0
attr interpolationmode none
attr source packetDropReasonIsQueueOverflow(packetDropped)
attr title "packet drops: queue overflow, count"
scalar scenario.client[2].ppp[2].ppp.queue packetDropQueueOverflow:sum(packetBytes) 0
attr interpolationmode none
attr source packetDropReasonIsQueueOverflow(packetDropped)
attr title "packet drops: queue overflow, sum(packetBytes)"
scalar scenario.client[2].ppp[2].ppp.queue packetRemoved:count 0
attr interpolationmode none
attr title "packets removed, count"
scalar scenario.client[2].ppp[2].ppp.queue packetRemoved:sum(packetBytes) 0
attr interpolationmode none
attr title "packets removed, sum(packetBytes)"
scalar scenario.client[2].ppp[2].ppp txPk:count 21
attr interpolationmode none
attr source packetSentToLower
attr title "packets transmitted, count"
scalar scenario.client[2].ppp[2].ppp txPk:sum(packetBytes) 1006
attr interpolationmode none
attr source packetSentToLower
attr title "packets transmitted, sum(packetBytes)"
scalar scenario.client[2].ppp[2].ppp rcvdPkFromHl:count 21
attr interpolationmode none
attr source packetReceivedFromUpper
attr title "packets received from higher layer, count"
scalar scenario.client[2].ppp[2].ppp rcvdPkFromHl:sum(packetBytes) 859
attr interpolationmode none
attr source packetReceivedFromUpper
attr title "packets received from higher layer, sum(packetBytes)"
scalar scenario.client[2].ppp[2].ppp passedUpPk:count 21
attr interpolationmode none
attr source packetSentToUpper
attr title "packets passed to higher layer, count"
scalar scenario.client[2].ppp[2].ppp passedUpPk:sum(packetBytes) 857
attr interpolationmode none
attr source packetSentToUpper
attr title "packets passed to higher layer, sum(packetBytes)"
scalar scenario.client[2].ppp[2].ppp packetDropIncorrectlyReceived:count 0
attr interpolationmode none
attr source packetDropReasonIsIncorrectlyReceived(packetDropped)
attr title "packet drop: incorrectly received, count"
scalar scenario.client[2].ppp[2].ppp packetDropIncorrectlyReceived:sum(packetBytes) 0
attr interpolationmode none
attr source packetDropReasonIsIncorrectlyReceived(packetDropped)
attr title "packet drop: incorrectly received, sum(packetBytes)"
scalar scenario.client[2].ppp[2].ppp packetDropInterfaceDown:count 0
attr interpolationmode none
attr source packetDropReasonIsInterfaceDown(packetDropped)
attr title "packet drop: interface down, count"
scalar scenario.client[2].ppp[2].ppp packetDropInterfaceDown:sum(packetBytes) 0
attr interpolationmode none
attr source packetDropReasonIsInterfaceDown(packetDropped)
attr title "packet drop: interface down, sum(packetBytes)"
scalar scenario.client[2].ppp[2].ppp rxPkOk:count 21
attr interpolationmode none
attr source rxPkOk
attr title "packets received OK, count"
scalar scenario.client[2].ppp[2].ppp rxPkOk:sum(packetBytes) 1004
attr interpolationmode none
attr source rxPkOk
attr title "packets received OK, sum(packetBytes)"
scalar scenario.client[2].ppp[2].ppp transmissionState:timeavg 2.5600407163533e-007
attr interpolationmode sample-hold
attr source transmissionStateChanged
attr title "tx state, timeavg"
scalar scenario.client[2].ppp[3].ppp.queue packetPopped:count 9
attr interpolationmode none
attr title "packet popped, count"
scalar scenario.client[2].ppp[3].ppp.queue packetPopped:sum(packetBytes) 373
attr interpolationmode none
attr title "packet popped, sum(packetBytes)"
statistic scenario.client[2].ppp[3].ppp.queue queueingTime:histogram
field count 9
field mean 0
field stddev 0
field min 0
field max 0
field sum 0
field sqrsum 0
attr interpolationmode none
attr source queueingTime(packetPopped)
attr title "queueing times, histogram"
attr unit s
bin	-inf	0
bin	-0.5	0
bin	-0.48	0
bin	-0.46	0
bin	-0.44	0
bin	-0.42	0
bin	-0.4	0
bin	-0.38	0
bin	-0.36	0
bin	-0.34	0
bin	-0.32	0
bin	-0.3	0
bin	-0.28	0
bin	-0.26	0
bin	-0.24	0
bin	-0.22	0
bin	-0.2	0
bin	-0.18	0
bin	-0.16	0
bin	-0.14	0
bin	-0.12	0
bin	-0.1	0
bin	-0.08	0
bin	-0.06	0
bin	-0.04	0
bin	-0.02	0
bin	0	9
bin	0.02	0
bin	0.04	0
bin	0.06	0
bin	0.08	0
bin	0.1	0
bin	0.12	0
bin	0.14	0
bin	0.16	0
bin	0.18	0
bin	0.2	0
bin	0.22	0
bin	0.24	0
bin	0.26	0
bin	0.28	0
bin	0.3	0
bin	0.32	0
bin	0.34	0
bin	0.36	0
bin	0.38	0
bin	0.4	0
bin	0.42	0
bin	0.44	0
bin	0.46	0
bin	0.48	0
bin	0.5	0
scalar scenario.client[2].ppp[3].ppp.queue queueLength:max 1
attr interpolationmode sample-hold
attr source "count(packetPushed) - count(packetPopped) - count(packetRemoved) - count(packetDropped)"
attr title "queue length, max"
scalar scenario.client[2].ppp[3].ppp.queue queueLength:timeavg 0
attr interpolationmode sample-hold
attr source "count(packetPushed) - count(packetPopped) - count(packetRemoved) - count(packetDropped)"
attr title "queue length, timeavg"
scalar scenario.client[2].ppp[3].ppp.queue packetPushed:count 9
attr interpolationmode none
attr title "packet pushed, count"
scalar scenario.client[2].ppp[3].ppp.queue packetPushed:sum(packetBytes) 373
attr interpolationmode none
attr title "packet pushed, sum(packetBytes)"
scalar scenario.client[2].ppp[3].ppp.queue packetDropQueueOverflow:count 0
attr interpolationmode none
attr source packetDropReasonIsQueueOverflow(packetDropped)
attr title "packet drops: queue overflow, count"
scalar scenario.client[2].ppp[3].ppp.queue packetDropQueueOverflow:sum(packetBytes) 0
attr interpolationmode none
attr source packetDropReasonIsQueueOverflow(packetDropped)
attr title "packet drops: queue overflow, sum(packetBytes)"
scalar scenario.client[2].ppp[3].ppp.queue packetRemoved:count 0
attr interpolationmode none
attr title "packets removed, count"
scalar scenario.client[2].ppp[3].ppp.queue packetRemoved:sum(packetBytes) 0
attr interpolationmode none
attr title "packets removed, sum(packetBytes)"
scalar scenario.client[2].ppp[3].ppp txPk:count 9
attr interpolationmode none
attr source packetSentToLower
attr title "packets transmitted, count"
scalar scenario.client[2].ppp[3].ppp txPk:sum(packetBytes) 436
attr interpolationmode none
attr source packetSentToLower
attr title "packets transmitted, sum(packetBytes)"
scalar scenario.client[2].ppp[3].ppp rcvdPkFromHl:count 9
attr interpolationmode none
attr source packetReceivedFromUpper
attr title "packets received from higher layer, count"
scalar scenario.client[2].ppp[3].ppp rcvdPkFromHl:sum(packetBytes) 373
attr interpolationmode none
attr source packetReceivedFromUpper
attr title "packets received from higher layer, sum(packetBytes)"
scalar scenario.client[2].ppp[3].ppp passedUpPk:count 9
attr interpolationmode none
attr source packetSentToUpper
attr title "packets passed to higher layer, count"
scalar scenario.client[2].ppp[3].ppp passedUpPk:sum(packetBytes) 371
attr interpolationmode none
attr source packetSentToUpper
attr title "packets passed to higher layer, sum(packetBytes)"
scalar scenario.client[2].ppp[3].ppp packetDropIncorrectlyReceived:count 0
attr interpolationmode none
attr source packetDropReasonIsIncorrectlyReceived(packetDropped)
attr title "packet drop: incorrectly received, count"
scalar scenario.client[2].ppp[3].ppp packetDropIncorrectlyReceived:sum(packetBytes) 0
attr interpolationmode none
attr source packetDropReasonIsIncorrectlyReceived(packetDropped)
attr title "packet drop: incorrectly received, sum(packetBytes)"
scalar scenario.client[2].ppp[3].ppp packetDropInterfaceDown:count 0
attr interpolationmode none
attr source packetDropReasonIsInterfaceDown(packetDropped)
attr title "packet drop: interface down, count"
scalar scenario.client[2].ppp[3].ppp packetDropInterfaceDown:sum(packetBytes) 0
attr interpolationmode none
attr source packetDropReasonIsInterfaceDown(packetDropped)
attr title "packet drop: interface down, sum(packetBytes)"
scalar scenario.client[2].ppp[3].ppp rxPkOk:count 9
attr interpolationmode none
attr source rxPkOk
attr title "packets received OK, count"
scalar scenario.client[2].ppp[3].ppp rxPkOk:sum(packetBytes) 434
attr interpolationmode none
attr source rxPkOk
attr title "packets received OK, sum(packetBytes)"
scalar scenario.client[2].ppp[3].ppp transmissionState:timeavg 1.1095206285587e-007
attr interpolationmode sample-hold
attr source transmissionStateChanged
attr title "tx state, timeavg"
scalar scenario.client[2].ipv4.ip packetDropAddressResolutionFailed:count 0
attr interpolationmode none
attr source packetDropReasonIsAddressResolutionFailed(packetDropped)
attr title "packet drop: address resolution failed, count"
scalar scenario.client[2].ipv4.ip packetDropAddressResolutionFailed:sum(packetBytes) 0
attr interpolationmode none
attr source packetDropReasonIsAddressResolutionFailed(packetDropped)
attr title "packet drop: address resolution failed, sum(packetBytes)"
scalar scenario.client[2].ipv4.ip packetDropHopLimitReached:count 0
attr interpolationmode none
attr source packetDropReasonIsHopLimitReached(packetDropped)
attr title "packet drop: hop limit reached, count"
scalar scenario.client[2].ipv4.ip packetDropHopLimitReached:sum(packetBytes) 0
attr interpolationmode none
attr source packetDropReasonIsHopLimitReached(packetDropped)
attr title "packet drop: hop limit reached, sum(packetBytes)"
scalar scenario.client[2].ipv4.ip packetDropForwardingDisabled:count 0
attr interpolationmode none
attr source packetDropReasonIsForwardingDisabled(packetDropped)
attr title "packet drop: forwarding disabled, count"
scalar scenario.client[2].ipv4.ip packetDropForwardingDisabled:sum(packetBytes) 0
attr interpolationmode none
attr source packetDropReasonIsForwardingDisabled(packetDropped)
attr title "packet drop: forwarding disabled, sum(packetBytes)"
scalar scenario.client[2].ipv4.ip packetDropNoInterfaceFound:count 0
attr interpolationmode none
attr source packetDropReasonIsNoInterfaceFound(packetDropped)
attr title "packet drop: no interface found, count"
scalar scenario.client[2].ipv4.ip packetDropNoInterfaceFound:sum(packetBytes) 0
attr interpolationmode none
attr source packetDropReasonIsNoInterfaceFound(packetDropped)
attr title "packet drop: no interface found, sum(packetBytes)"
scalar scenario.client[2].ipv4.ip packetDropNoRouteFound:count 0
attr interpolationmode none
attr source packetDropReasonIsNoRouteFound(packetDropped)
attr title "packet drop: no route found, count"
scalar scenario.client[2].ipv4.ip packetDropNoRouteFound:sum(packetBytes) 0
attr interpolationmode none
attr source packetDropReasonIsNoRouteFound(packetDropped)
attr title "packet drop: no route found, sum(packetBytes)"
scalar scenario.client[2].ipv4.ip packetDropUndefined:count 0
attr interpolationmode none
attr source packetDropReasonIsUndefined(packetDropped)
attr title "packet drop: undefined, count"
scalar scenario.client[2].ipv4.ip packetDropUndefined:sum(packetBytes) 0
attr interpolationmode none
attr source packetDropReasonIsUndefined(packetDropped)
attr title "packet drop: undefined, sum(packetBytes)"
scalar scenario.client[2].ipv4.arp arpReplySent:count 0
attr source arpReplySent
attr title "ARP replies sent, count"
scalar scenario.client[2].ipv4.arp arpReplySent:sum(packetBytes) 0
attr source arpReplySent
attr title "ARP replies sent, sum(packetBytes)"
scalar scenario.client[2].ipv4.arp arpRequestSent:count 0
attr source arpRequestSent
attr title "ARP request sent, count"
scalar scenario.client[2].ipv4.arp arpRequestSent:sum(packetBytes) 0
attr source arpRequestSent
attr title "ARP request sent, sum(packetBytes)"
scalar scenario.client[2].ipv4.arp arpResolutionFailed:count 0
attr title "ARP failed resolutions, count"
scalar scenario.client[2].ipv4.arp arpResolutionCompleted:count 0
attr title "ARP completed resolutions, count"
scalar scenario.client[2].ipv4.arp arpResolutionInitiated:count 0
attr title "ARP initiated resolutions, count"
scalar scenario.client[2].udp packetReceived:count 0
attr interpolationmode none
attr source packetReceived
attr title "packets received, count"
scalar scenario.client[2].udp packetReceived:sum(packetBytes) 0
attr interpolationmode none
attr source packetReceived
attr title "packets received, sum(packetBytes)"
scalar scenario.client[2].udp packetSent:count 0
attr interpolationmode none
attr source packetSent
attr title "packets sent, count"
scalar scenario.client[2].udp packetSent:sum(packetBytes) 0
attr interpolationmode none
attr source packetSent
attr title "packets sent, sum(packetBytes)"
scalar scenario.client[2].udp passedUpPk:count 0
attr interpolationmode none
attr source packetSentToUpper
attr title "packets passed up, count"
scalar scenario.client[2].udp droppedPkWrongPort:count 0
attr interpolationmode none
attr source packetDropReasonIsNoPortFound(packetDropped)
attr title "packets dropped (wrong port), count"
scalar scenario.client[2].udp droppedPkBadChecksum:count 0
attr interpolationmode none
attr source packetDropReasonIsIncorrectlyReceived(packetDropped)
attr title "packets dropped (checksum error), count"
scalar scenario.client[3].lo[0].lo rcvdPkFromHl:count 0
attr interpolationmode none
attr source packetReceivedFromUpper
attr title "packets received from higher layer, count"
scalar scenario.client[3].lo[0].lo rcvdPkFromHl:sum(packetBytes) 0
attr interpolationmode none
attr source packetReceivedFromUpper
attr title "packets received from higher layer, sum(packetBytes)"
scalar scenario.client[3].lo[0].lo passedUpPk:count 0
attr interpolationmode none
attr source packetSentToUpper
attr title "packets passed to higher layer, count"
scalar scenario.client[3].lo[0].lo passedUpPk:sum(packetBytes) 0
attr interpolationmode none
attr source packetSentToUpper
attr title "packets passed to higher layer, sum(packetBytes)"
scalar scenario.client[3].ppp[0].ppp.queue packetPopped:count 32
attr interpolationmode none
attr title "packet popped, count"
[...]
scalar scenario.client[4].ppp[0].ppp transmissionState:timeavg 1.104431084391e-007
attr interpolationmode sample-hold
attr source transmissionStateChanged
attr title "tx state, timeavg"
scalar scenario.client[4].ppp[1].ppp.queue packetPopped:count 9
attr interpolationmode none
attr title "packet popped, count"
scalar scenario.client[4].ppp[1].ppp.queue packetPopped:sum(packetBytes) 371
attr interpolationmode none
attr title "packet popped, sum(packetBytes)"
statistic scenario.client[4].ppp[1].ppp.queue queueingTime:histogram
field count 9
field mean 0
field stddev 0
field min 0
field max 0
field sum 0
field sqrsum 0
attr interpolationmode none
attr source queueingTime(packetPopped)
attr title "queueing times, histogram"
attr unit s
bin	-inf	0
bin	-0.5	0
bin	-0.48	0
bin	-0.46	0
bin	-0.44	0
bin	-0.42	0
bin	-0.4	0
bin	-0.38	0
bin	-0.36	0
bin	-0.34	0
bin	-0.32	0
bin	-0.3	0
bin	-0.28	0
bin	-0.26	0
bin	-0.24	0
bin	-0.22	0
bin	-0.2	0
bin	-0.18	0
bin	-0.16	0
bin	-0.14	0
bin	-0.12	0
bin	-0.1	0
bin	-0.08	0
bin	-0.06	0
bin	-0.04	0
bin	-0.02	0
bin	0	9
bin	0.02	0
bin	0.04	0
bin	0.06	0
bin	0.08	0
bin	0.1	0
bin	0.12	0
bin	0.14	0
bin	0.16	0
bin	0.18	0
bin	0.2	0
bin	0.22	0
bin	0.24	0
bin	0.26	0
bin	0.28	0
bin	0.3	0
bin	0.32	0
bin	0.34	0
bin	0.36	0
bin	0.38	0
bin	0.4	0
bin	0.42	0
bin	0.44	0
bin	0.46	0
bin	0.48	0
bin	0.5	0
scalar scenario.client[4].ppp[1].ppp.queue queueLength:max 1
attr interpolationmode sample-hold
attr source "count(packetPushed) - count(packetPopped) - count(packetRemoved) - count(packetDropped)"
attr title "queue length, max"
scalar scenario.client[4].ppp[1].ppp.queue queueLength:timeavg 0
attr interpolationmode sample-hold
attr source "count(packetPushed) - count(packetPopped) - count(packetRemoved) - count(packetDropped)"
attr title "queue length, timeavg"
scalar scenario.client[4].ppp[1].ppp.queue packetPushed:count 9
attr interpolationmode none
attr title "packet pushed, count"
scalar scenario.client[4].ppp[1].ppp.queue packetPushed:sum(packetBytes) 371
attr interpolationmode none
attr title "packet pushed, sum(packetBytes)"
scalar scenario.client[4].ppp[1].ppp.queue packetDropQueueOverflow:count 0
attr interpolationmode none
attr source packetDropReasonIsQueueOverflow(packetDropped)
attr title "packet drops: queue overflow, count"
scalar scenario.client[4].ppp[1].ppp.queue packetDropQueueOverflow:sum(packetBytes) 0
attr interpolationmode none
attr source packetDropReasonIsQueueOverflow(packetDropped)
attr title "packet drops: queue overflow, sum(packetBytes)"
scalar scenario.client[4].ppp[1].ppp.queue packetRemoved:count 0
attr interpolationmode none
attr title "packets removed, count"
scalar scenario.client[4].ppp[1].ppp.queue packetRemoved:sum(packetBytes) 0
attr interpolationmode none
attr title "packets removed, sum(packetBytes)"
scalar scenario.client[4].ppp[1].ppp txPk:count 9
attr interpolationmode none
attr source packetSentToLower
attr title "packets transmitted, count"
scalar scenario.client[4].ppp[1].ppp txPk:sum(packetBytes) 434
attr interpolationmode none
attr source packetSentToLower
attr title "packets transmitted, sum(packetBytes)"
scalar scenario.client[4].ppp[1].ppp rcvdPkFromHl:count 9
attr interpolationmode none
attr source packetReceivedFromUpper
attr title "packets received from higher layer, count"
scalar scenario.client[4].ppp[1].ppp rcvdPkFromHl:sum(packetBytes) 371
attr interpolationmode none
attr source packetReceivedFromUpper
attr title "packets received from higher layer, sum(packetBytes)"
scalar scenario.client[4].ppp[1].ppp passedUpPk:count 9
attr interpolationmode none
attr source packetSentToUpper
attr title "packets passed to higher layer, count"
scalar scenario.client[4].ppp[1].ppp passedUpPk:sum(packetBytes) 373
attr interpolationmode none
attr source packetSentToUpper
attr title "packets passed to higher layer, sum(packetBytes)"
scalar scenario.client[4].ppp[1].ppp packetDropIncorrectlyReceived:count 0
attr interpolationmode none
attr source packetDropReasonIsIncorrectlyReceived(packetDropped)
attr title "packet drop: incorrectly received, count"
scalar scenario.client[4].ppp[1].ppp packetDropIncorrectlyReceived:sum(packetBytes) 0
attr interpolationmode none
attr source packetDropReasonIsIncorrectlyReceived(packetDropped)
attr title "packet drop: incorrectly received, sum(packetBytes)"
scalar scenario.client[4].ppp[1].ppp packetDropInterfaceDown:count 0
attr interpolationmode none
attr source packetDropReasonIsInterfaceDown(packetDropped)
attr title "packet drop: interface down, count"
scalar scenario.client[4].ppp[1].ppp packetDropInterfaceDown:sum(packetBytes) 0
attr interpolationmode none
attr source packetDropReasonIsInterfaceDown(packetDropped)
attr title "packet drop: interface down, sum(packetBytes)"
scalar scenario.client[4].ppp[1].ppp rxPkOk:count 9
attr interpolationmode none
attr source rxPkOk
attr title "packets received OK, count"
scalar scenario.client[4].ppp[1].ppp rxPkOk:sum(packetBytes) 436
attr interpolationmode none
attr source rxPkOk
attr title "packets received OK, sum(packetBytes)"
scalar scenario.client[4].ppp[1].ppp transmissionState:timeavg 1.104431084391e-007
attr interpolationmode sample-hold
attr source transmissionStateChanged
attr title "tx state, timeavg"
scalar scenario.client[4].ppp[2].ppp.queue packetPopped:count 9
attr interpolationmode none
attr title "packet popped, count"
scalar scenario.client[4].ppp[2].ppp.queue packetPopped:sum(packetBytes) 371
attr interpolationmode none
attr title "packet popped, sum(packetBytes)"
statistic scenario.client[4].ppp[2].ppp.queue queueingTime:histogram
field count 9
field mean 0
field stddev 0
field min 0
field max 0
field sum 0
field sqrsum 0
attr interpolationmode none
attr source queueingTime(packetPopped)
attr title "queueing times, histogram"
attr unit s
bin	-inf	0
bin	-0.5	0
bin	-0.48	0
bin	-0.46	0
bin	-0.44	0
bin	-0.42	0
bin	-0.4	0
bin	-0.38	0
bin	-0.36	0
bin	-0.34	0
bin	-0.32	0
bin	-0.3	0
bin	-0.28	0
bin	-0.26	0
bin	-0.24	0
bin	-0.22	0
bin	-0.2	0
bin	-0.18	0
bin	-0.16	0
bin	-0.14	0
bin	-0.12	0
bin	-0.1	0
bin	-0.08	0
bin	-0.06	0
bin	-0.04	0
bin	-0.02	0
bin	0	9
bin	0.02	0
bin	0.04	0
bin	0.06	0
bin	0.08	0
bin	0.1	0
bin	0.12	0
bin	0.14	0
bin	0.16	0
bin	0.18	0
bin	0.2	0
bin	0.22	0
bin	0.24	0
bin	0.26	0
bin	0.28	0
bin	0.3	0
bin	0.32	0
bin	0.34	0
bin	0.36	0
bin	0.38	0
bin	0.4	0
bin	0.42	0
bin	0.44	0
bin	0.46	0
bin	0.48	0
bin	0.5	0
scalar scenario.client[4].ppp[2].ppp.queue queueLength:max 1
attr interpolationmode sample-hold
attr source "count(packetPushed) - count(packetPopped) - count(packetRemoved) - count(packetDropped)"
attr title "queue length, max"
scalar scenario.client[4].ppp[2].ppp.queue queueLength:timeavg 0
attr interpolationmode sample-hold
attr source "count(packetPushed) - count(packetPopped) - count(packetRemoved) - count(packetDropped)"
attr title "queue length, timeavg"
scalar scenario.client[4].ppp[2].ppp.queue packetPushed:count 9
attr interpolationmode none
attr title "packet pushed, count"
scalar scenario.client[4].ppp[2].ppp.queue packetPushed:sum(packetBytes) 371
attr interpolationmode none
attr title "packet pushed, sum(packetBytes)"
scalar scenario.client[4].ppp[2].ppp.queue packetDropQueueOverflow:count 0
attr interpolationmode none
attr source packetDropReasonIsQueueOverflow(packetDropped)
attr title "packet drops: queue overflow, count"
scalar scenario.client[4].ppp[2].ppp.queue packetDropQueueOverflow:sum(packetBytes) 0
attr interpolationmode none
attr source packetDropReasonIsQueueOverflow(packetDropped)
attr title "packet drops: queue overflow, sum(packetBytes)"
scalar scenario.client[4].ppp[2].ppp.queue packetRemoved:count 0
attr interpolationmode none
attr title "packets removed, count"
scalar scenario.client[4].ppp[2].ppp.queue packetRemoved:sum(packetBytes) 0
attr interpolationmode none
attr title "packets removed, sum(packetBytes)"
scalar scenario.client[4].ppp[2].ppp txPk:count 9
attr interpolationmode none
attr source packetSentToLower
attr title "packets transmitted, count"
scalar scenario.client[4].ppp[2].ppp txPk:sum(packetBytes) 434
attr interpolationmode none
attr source packetSentToLower
attr title "packets transmitted, sum(packetBytes)"
scalar scenario.client[4].ppp[2].ppp rcvdPkFromHl:count 9
attr interpolationmode none
attr source packetReceivedFromUpper
attr title "packets received from higher layer, count"
scalar scenario.client[4].ppp[2].ppp rcvdPkFromHl:sum(packetBytes) 371
attr interpolationmode none
attr source packetReceivedFromUpper
attr title "packets received from higher layer, sum(packetBytes)"
scalar scenario.client[4].ppp[2].ppp passedUpPk:count 9
attr interpolationmode none
attr source packetSentToUpper
attr title "packets passed to higher layer, count"
scalar scenario.client[4].ppp[2].ppp passedUpPk:sum(packetBytes) 373
attr interpolationmode none
attr source packetSentToUpper
attr title "packets passed to higher layer, sum(packetBytes)"
scalar scenario.client[4].ppp[2].ppp packetDropIncorrectlyReceived:count 0
attr interpolationmode none
attr source packetDropReasonIsIncorrectlyReceived(packetDropped)
attr title "packet drop: incorrectly received, count"
scalar scenario.client[4].ppp[2].ppp packetDropIncorrectlyReceived:sum(packetBytes) 0
attr interpolationmode none
attr source packetDropReasonIsIncorrectlyReceived(packetDropped)
attr title "packet drop: incorrectly received, sum(packetBytes)"
scalar scenario.client[4].ppp[2].ppp packetDropInterfaceDown:count 0
attr interpolationmode none
attr source packetDropReasonIsInterfaceDown(packetDropped)
attr title "packet drop: interface down, count"
scalar scenario.client[4].ppp[2].ppp packetDropInterfaceDown:sum(packetBytes) 0
attr interpolationmode none
attr source packetDropReasonIsInterfaceDown(packetDropped)
attr title "packet drop: interface down, sum(packetBytes)"
scalar scenario.client[4].ppp[2].ppp rxPkOk:count 9
attr interpolationmode none
attr source rxPkOk
attr title "packets received OK, count"
scalar scenario.client[4].ppp[2].ppp rxPkOk:sum(packetBytes) 436
attr interpolationmode none
attr source rxPkOk
attr title "packets received OK, sum(packetBytes)"
scalar scenario.client[4].ppp[2].ppp transmissionState:timeavg 1.104431084391e-007
attr interpolationmode sample-hold
attr source transmissionStateChanged
attr title "tx state, timeavg"
scalar scenario.client[4].ppp[3].ppp.queue packetPopped:count 8
attr interpolationmode none
attr title "packet popped, count"
scalar scenario.client[4].ppp[3].ppp.queue packetPopped:sum(packetBytes) 331
attr interpolationmode none
attr title "packet popped, sum(packetBytes)"
statistic scenario.client[4].ppp[3].ppp.queue queueingTime:histogram
field count 8
field mean 0
field stddev 0
field min 0
field max 0
field sum 0
field sqrsum 0
attr interpolationmode none
attr source queueingTime(packetPopped)
attr title "queueing times, histogram"
attr unit s
bin	-inf	0
bin	-0.5	0
bin	-0.48	0
bin	-0.46	0
bin	-0.44	0
bin	-0.42	0
bin	-0.4	0
bin	-0.38	0
bin	-0.36	0
bin	-0.34	0
bin	-0.32	0
bin	-0.3	0
bin	-0.28	0
bin	-0.26	0
bin	-0.24	0
bin	-0.22	0
bin	-0.2	0
bin	-0.18	0
bin	-0.16	0
bin	-0.14	0
bin	-0.12	0
bin	-0.1	0
bin	-0.08	0
bin	-0.06	0
bin	-0.04	0
bin	-0.02	0
bin	0	8
bin	0.02	0
bin	0.04	0
bin	0.06	0
bin	0.08	0
bin	0.1	0
bin	0.12	0
bin	0.14	0
bin	0.16	0
bin	0.18	0
bin	0.2	0
bin	0.22	0
bin	0.24	0
bin	0.26	0
bin	0.28	0
bin	0.3	0
bin	0.32	0
bin	0.34	0
bin	0.36	0
bin	0.38	0
bin	0.4	0
bin	0.42	0
bin	0.44	0
bin	0.46	0
bin	0.48	0
bin	0.5	0
scalar scenario.client[4].ppp[3].ppp.queue queueLength:max 1
attr interpolationmode sample-hold
attr source "count(packetPushed) - count(packetPopped) - count(packetRemoved) - count(packetDropped)"
attr title "queue length, max"
scalar scenario.client[4].ppp[3].ppp.queue queueLength:timeavg 0
attr interpolationmode sample-hold
attr source "count(packetPushed) - count(packetPopped) - count(packetRemoved) - count(packetDropped)"
attr title "queue length, timeavg"
scalar scenario.client[4].ppp[3].ppp.queue packetPushed:count 8
attr interpolationmode none
attr title "packet pushed, count"
scalar scenario.client[4].ppp[3].ppp.queue packetPushed:sum(packetBytes) 331
attr interpolationmode none
attr title "packet pushed, sum(packetBytes)"
scalar scenario.client[4].ppp[3].ppp.queue packetDropQueueOverflow:count 0
attr interpolationmode none
attr source packetDropReasonIsQueueOverflow(packetDropped)
attr title "packet drops: queue overflow, count"
scalar scenario.client[4].ppp[3].ppp.queue packetDropQueueOverflow:sum(packetBytes) 0
attr interpolationmode none
attr source packetDropReasonIsQueueOverflow(packetDropped)
attr title "packet drops: queue overflow, sum(packetBytes)"
scalar scenario.client[4].ppp[3].ppp.queue packetRemoved:count 0
attr interpolationmode none
attr title "packets removed, count"
scalar scenario.client[4].ppp[3].ppp.queue packetRemoved:sum(packetBytes) 0
attr interpolationmode none
attr title "packets removed, sum(packetBytes)"
scalar scenario.client[4].ppp[3].ppp txPk:count 8
attr interpolationmode none
attr source packetSentToLower
attr title "packets transmitted, count"
scalar scenario.client[4].ppp[3].ppp txPk:sum(packetBytes) 387
attr interpolationmode none
attr source packetSentToLower
attr title "packets transmitted, sum(packetBytes)"
scalar scenario.client[4].ppp[3].ppp rcvdPkFromHl:count 8
attr interpolationmode none
attr source packetReceivedFromUpper
attr title "packets received from higher layer, count"
scalar scenario.client[4].ppp[3].ppp rcvdPkFromHl:sum(packetBytes) 331
attr interpolationmode none
attr source packetReceivedFromUpper
attr title "packets received from higher layer, sum(packetBytes)"
scalar scenario.client[4].ppp[3].ppp passedUpPk:count 8
attr interpolationmode none
attr source packetSentToUpper
attr title "packets passed to higher layer, count"
scalar scenario.client[4].ppp[3].ppp passedUpPk:sum(packetBytes) 331
attr interpolationmode none
attr source packetSentToUpper
attr title "packets passed to higher layer, sum(packetBytes)"
scalar scenario.client[4].ppp[3].ppp packetDropIncorrectlyReceived:count 0
attr interpolationmode none
attr source packetDropReasonIsIncorrectlyReceived(packetDropped)
attr title "packet drop: incorrectly received, count"
scalar scenario.client[4].ppp[3].ppp packetDropIncorrectlyReceived:sum(packetBytes) 0
attr interpolationmode none
attr source packetDropReasonIsIncorrectlyReceived(packetDropped)
attr title "packet drop: incorrectly received, sum(packetBytes)"
scalar scenario.client[4].ppp[3].ppp packetDropInterfaceDown:count 0
attr interpolationmode none
attr source packetDropReasonIsInterfaceDown(packetDropped)
attr title "packet drop: interface down, count"
scalar scenario.client[4].ppp[3].ppp packetDropInterfaceDown:sum(packetBytes) 0
attr interpolationmode none
attr source packetDropReasonIsInterfaceDown(packetDropped)
attr title "packet drop: interface down, sum(packetBytes)"
scalar scenario.client[4].ppp[3].ppp rxPkOk:count 8
attr interpolationmode none
attr source rxPkOk
attr title "packets received OK, count"
scalar scenario.client[4].ppp[3].ppp rxPkOk:sum(packetBytes) 387
attr interpolationmode none
attr source rxPkOk
attr title "packets received OK, sum(packetBytes)"
scalar scenario.client[4].ppp[3].ppp transmissionState:timeavg 9.8482679645004e-008
attr interpolationmode sample-hold
attr source transmissionStateChanged
attr title "tx state, timeavg"
scalar scenario.client[4].ipv4.ip packetDropAddressResolutionFailed:count 0
attr interpolationmode none
attr source packetDropReasonIsAddressResolutionFailed(packetDropped)
attr title "packet drop: address resolution failed, count"
scalar scenario.client[4].ipv4.ip packetDropAddressResolutionFailed:sum(packetBytes) 0
attr interpolationmode none
attr source packetDropReasonIsAddressResolutionFailed(packetDropped)
attr title "packet drop: address resolution failed, sum(packetBytes)"
scalar scenario.client[4].ipv4.ip packetDropHopLimitReached:count 0
attr interpolationmode none
attr source packetDropReasonIsHopLimitReached(packetDropped)
attr title "packet drop: hop limit reached, count"
scalar scenario.client[4].ipv4.ip packetDropHopLimitReached:sum(packetBytes) 0
attr interpolationmode none
attr source packetDropReasonIsHopLimitReached(packetDropped)
attr title "packet drop: hop limit reached, sum(packetBytes)"
scalar scenario.client[4].ipv4.ip packetDropForwardingDisabled:count 0
attr interpolationmode none
attr source packetDropReasonIsForwardingDisabled(packetDropped)
attr title "packet drop: forwarding disabled, count"
scalar scenario.client[4].ipv4.ip packetDropForwardingDisabled:sum(packetBytes) 0
attr interpolationmode none
attr source packetDropReasonIsForwardingDisabled(packetDropped)
attr title "packet drop: forwarding disabled, sum(packetBytes)"
scalar scenario.client[4].ipv4.ip packetDropNoInterfaceFound:count 0
attr interpolationmode none
attr source packetDropReasonIsNoInterfaceFound(packetDropped)
attr title "packet drop: no interface found, count"
scalar scenario.client[4].ipv4.ip packetDropNoInterfaceFound:sum(packetBytes) 0
attr interpolationmode none
attr source packetDropReasonIsNoInterfaceFound(packetDropped)
attr title "packet drop: no interface found, sum(packetBytes)"
scalar scenario.client[4].ipv4.ip packetDropNoRouteFound:count 0
attr interpolationmode none
attr source packetDropReasonIsNoRouteFound(packetDropped)
attr title "packet drop: no route found, count"
scalar scenario.client[4].ipv4.ip packetDropNoRouteFound:sum(packetBytes) 0
attr interpolationmode none
attr source packetDropReasonIsNoRouteFound(packetDropped)
attr title "packet drop: no route found, sum(packetBytes)"
scalar scenario.client[4].ipv4.ip packetDropUndefined:count 0
attr interpolationmode none
attr source packetDropReasonIsUndefined(packetDropped)
attr title "packet drop: undefined, count"
scalar scenario.client[4].ipv4.ip packetDropUndefined:sum(packetBytes) 0
attr interpolationmode none
attr source packetDropReasonIsUndefined(packetDropped)
attr title "packet drop: undefined, sum(packetBytes)"
scalar scenario.client[4].ipv4.arp arpReplySent:count 0
attr source arpReplySent
attr title "ARP replies sent, count"
scalar scenario.client[4].ipv4.arp arpReplySent:sum(packetBytes) 0
attr source arpReplySent
attr title "ARP replies sent, sum(packetBytes)"
scalar scenario.client[4].ipv4.arp arpRequestSent:count 0
attr source arpRequestSent
attr title "ARP request sent, count"
scalar scenario.client[4].ipv4.arp arpRequestSent:sum(packetBytes) 0
attr source arpRequestSent
attr title "ARP request sent, sum(packetBytes)"
scalar scenario.client[4].ipv4.arp arpResolutionFailed:count 0
attr title "ARP failed resolutions, count"
scalar scenario.client[4].ipv4.arp arpResolutionCompleted:count 0
attr title "ARP completed resolutions, count"
scalar scenario.client[4].ipv4.arp arpResolutionInitiated:count 0
attr title "ARP initiated resolutions, count"
scalar scenario.client[4].udp packetReceived:count 0
attr interpolationmode none
attr source packetReceived
attr title "packets received, count"
scalar scenario.client[4].udp packetReceived:sum(packetBytes) 0
attr interpolationmode none
attr source packetReceived
attr title "packets received, sum(packetBytes)"
scalar scenario.client[4].udp packetSent:count 0
attr interpolationmode none
attr source packetSent
attr title "packets sent, count"
scalar scenario.client[4].udp packetSent:sum(packetBytes) 0
attr interpolationmode none
attr source packetSent
attr title "packets sent, sum(packetBytes)"
scalar scenario.client[4].udp passedUpPk:count 0
attr interpolationmode none
attr source packetSentToUpper
attr title "packets passed up, count"
scalar scenario.client[4].udp droppedPkWrongPort:count 0
attr interpolationmode none
attr source packetDropReasonIsNoPortFound(packetDropped)
attr title "packets dropped (wrong port), count"
scalar scenario.client[4].udp droppedPkBadChecksum:count 0
attr interpolationmode none
attr source packetDropReasonIsIncorrectlyReceived(packetDropped)
attr title "packets dropped (checksum error), count"

