version 2
run BROADCAST7b-0-20220208-18:31:41-15600
attr configname BROADCAST7b
attr datetime 20220208-18:31:41
attr experiment BROADCAST7b
attr inifile omnetpp.ini
attr iterationvars ""
attr iterationvarsf ""
attr measurement ""
attr network scenario
attr processid 15600
attr repetition 0
attr replication #0
attr resultdir results
attr runnumber 0
attr seedset 0
param *.n 7
param **.client[*].app[0].nPar 7
param **.client[*].app[0].nNPar 0
param **.client[0].app[0].numMsg 4
param **.client[0].app[0].sendFrequency 2.5
param **.client[0].app[0].startSend 0.5
param **.client[1].app[0].numMsg 4
param **.client[1].app[0].sendFrequency 2.5
param **.client[1].app[0].startSend 3.5
param **.client[5].app[0].leave 1.0
param **.client[6].app[0].leave 4.0
param **.client[7].app[0].leave 10.0
param **.ppp[*].ppp.queue.typename "\"DropTailQueue\""
param **.tcp.typename "\"Tcp\""
param **.tcp.nagleEnabled false
param **.client[*].app[*].fPar 0
param **.numApps 1
param **.client[*].app[*].typename "\"Node\""
param **.client[*].app[0].localPort index+1000
param **.client[*].app[0].localPortL 1234
param **.client[*].app[0].connectAddress "\"\""
param **.client[*].app[0].connectPort 1234

scalar scenario.client[0].lo[0].lo rcvdPkFromHl:count 0
attr interpolationmode none
attr source packetReceivedFromUpper
attr title "packets received from higher layer, count"
scalar scenario.client[0].lo[0].lo rcvdPkFromHl:sum(packetBytes) 0
attr interpolationmode none
attr source packetReceivedFromUpper
attr title "packets received from higher layer, sum(packetBytes)"
scalar scenario.client[0].lo[0].lo passedUpPk:count 0
attr interpolationmode none
attr source packetSentToUpper
attr title "packets passed to higher layer, count"
scalar scenario.client[0].lo[0].lo passedUpPk:sum(packetBytes) 0
attr interpolationmode none
attr source packetSentToUpper
attr title "packets passed to higher layer, sum(packetBytes)"
scalar scenario.client[0].ppp[0].ppp.queue packetPopped:count 135
attr interpolationmode none
attr title "packet popped, count"
scalar scenario.client[0].ppp[0].ppp.queue packetPopped:sum(packetBytes) 5476
attr interpolationmode none
attr title "packet popped, sum(packetBytes)"
statistic scenario.client[0].ppp[0].ppp.queue queueingTime:histogram
field count 135
field mean 3.6207407407407e-005
field stddev 0.00011133203641711
field min 0
field max 0.000376
field sum 0.004888
field sqrsum 1.837888e-006
attr interpolationmode none
attr source queueingTime(packetPopped)
attr title "queueing times, histogram"
attr unit s
bin	-inf	0
bin	0	122
bin	1e-005	0
bin	2e-005	0
bin	3e-005	0
bin	4e-005	0
bin	5e-005	0
bin	6e-005	0
bin	7e-005	0
bin	8e-005	0
bin	9e-005	0
bin	0.0001	0
bin	0.00011	0
bin	0.00012	0
bin	0.00013	0
bin	0.00014	0
bin	0.00015	0
bin	0.00016	0
bin	0.00017	0
bin	0.00018	0
bin	0.00019	0
bin	0.0002	0
bin	0.00021	0
bin	0.00022	0
bin	0.00023	0
bin	0.00024	0
bin	0.00025	0
bin	0.00026	0
bin	0.00027	0
bin	0.00028	0
bin	0.00029	0
bin	0.0003	0
bin	0.00031	0
bin	0.00032	0
bin	0.00033	0
bin	0.00034	0
bin	0.00035	0
bin	0.00036	0
bin	0.00037	13
bin	0.00038	0
bin	0.00039	0
bin	0.0004	0
bin	0.00041	0
bin	0.00042	0
bin	0.00043	0
bin	0.00044	0
bin	0.00045	0
bin	0.00046	0
bin	0.00047	0
scalar scenario.client[0].ppp[0].ppp.queue queueLength:max 1
attr interpolationmode sample-hold
attr source "count(packetPushed) - count(packetPopped) - count(packetRemoved) - count(packetDropped)"
attr title "queue length, max"
scalar scenario.client[0].ppp[0].ppp.queue queueLength:timeavg 3.1799108740201e-007
attr interpolationmode sample-hold
attr source "count(packetPushed) - count(packetPopped) - count(packetRemoved) - count(packetDropped)"
attr title "queue length, timeavg"
scalar scenario.client[0].ppp[0].ppp.queue packetPushed:count 135
attr interpolationmode none
attr title "packet pushed, count"
scalar scenario.client[0].ppp[0].ppp.queue packetPushed:sum(packetBytes) 5476
attr interpolationmode none
attr title "packet pushed, sum(packetBytes)"
scalar scenario.client[0].ppp[0].ppp.queue packetDropQueueOverflow:count 0
attr interpolationmode none
attr source packetDropReasonIsQueueOverflow(packetDropped)
attr title "packet drops: queue overflow, count"
scalar scenario.client[0].ppp[0].ppp.queue packetDropQueueOverflow:sum(packetBytes) 0
attr interpolationmode none
attr source packetDropReasonIsQueueOverflow(packetDropped)
attr title "packet drops: queue overflow, sum(packetBytes)"
scalar scenario.client[0].ppp[0].ppp.queue packetRemoved:count 0
attr interpolationmode none
attr title "packets removed, count"
scalar scenario.client[0].ppp[0].ppp.queue packetRemoved:sum(packetBytes) 0
attr interpolationmode none
attr title "packets removed, sum(packetBytes)"
scalar scenario.client[0].ppp[0].ppp txPk:count 135
attr interpolationmode none
attr source packetSentToLower
attr title "packets transmitted, count"
scalar scenario.client[0].ppp[0].ppp txPk:sum(packetBytes) 6421
attr interpolationmode none
attr source packetSentToLower
attr title "packets transmitted, sum(packetBytes)"
scalar scenario.client[0].ppp[0].ppp rcvdPkFromHl:count 135
attr interpolationmode none
attr source packetReceivedFromUpper
attr title "packets received from higher layer, count"
scalar scenario.client[0].ppp[0].ppp rcvdPkFromHl:sum(packetBytes) 5476
attr interpolationmode none
attr source packetReceivedFromUpper
attr title "packets received from higher layer, sum(packetBytes)"
scalar scenario.client[0].ppp[0].ppp passedUpPk:count 135
attr interpolationmode none
attr source packetSentToUpper
attr title "packets passed to higher layer, count"
scalar scenario.client[0].ppp[0].ppp passedUpPk:sum(packetBytes) 5477
attr interpolationmode none
attr source packetSentToUpper
attr title "packets passed to higher layer, sum(packetBytes)"
scalar scenario.client[0].ppp[0].ppp packetDropIncorrectlyReceived:count 0
attr interpolationmode none
attr source packetDropReasonIsIncorrectlyReceived(packetDropped)
attr title "packet drop: incorrectly received, count"
scalar scenario.client[0].ppp[0].ppp packetDropIncorrectlyReceived:sum(packetBytes) 0
attr interpolationmode none
attr source packetDropReasonIsIncorrectlyReceived(packetDropped)
attr title "packet drop: incorrectly received, sum(packetBytes)"
scalar scenario.client[0].ppp[0].ppp packetDropInterfaceDown:count 0
attr interpolationmode none
attr source packetDropReasonIsInterfaceDown(packetDropped)
attr title "packet drop: interface down, count"
scalar scenario.client[0].ppp[0].ppp packetDropInterfaceDown:sum(packetBytes) 0
attr interpolationmode none
attr source packetDropReasonIsInterfaceDown(packetDropped)
attr title "packet drop: interface down, sum(packetBytes)"
scalar scenario.client[0].ppp[0].ppp rxPkOk:count 135
attr interpolationmode none
attr source rxPkOk
attr title "packets received OK, count"
scalar scenario.client[0].ppp[0].ppp rxPkOk:sum(packetBytes) 6422
attr interpolationmode none
attr source rxPkOk
attr title "packets received OK, sum(packetBytes)"
scalar scenario.client[0].ppp[0].ppp transmissionState:timeavg 3.3416601613323e-006
attr interpolationmode sample-hold
attr source transmissionStateChanged
attr title "tx state, timeavg"
scalar scenario.client[0].ppp[1].ppp.queue packetPopped:count 129
attr interpolationmode none
attr title "packet popped, count"
scalar scenario.client[0].ppp[1].ppp.queue packetPopped:sum(packetBytes) 5238
attr interpolationmode none
attr title "packet popped, sum(packetBytes)"
statistic scenario.client[0].ppp[1].ppp.queue queueingTime:histogram
field count 129
field mean 5.537984496124e-005
field stddev 0.0001337707456924
field min 0
field max 0.000376
field sum 0.007144
field sqrsum 2.686144e-006
attr interpolationmode none
attr source queueingTime(packetPopped)
attr title "queueing times, histogram"
attr unit s
bin	-inf	0
bin	0	110
bin	1e-005	0
bin	2e-005	0
bin	3e-005	0
bin	4e-005	0
bin	5e-005	0
bin	6e-005	0
bin	7e-005	0
bin	8e-005	0
bin	9e-005	0
bin	0.0001	0
bin	0.00011	0
bin	0.00012	0
bin	0.00013	0
bin	0.00014	0
bin	0.00015	0
bin	0.00016	0
bin	0.00017	0
bin	0.00018	0
bin	0.00019	0
bin	0.0002	0
bin	0.00021	0
bin	0.00022	0
bin	0.00023	0
bin	0.00024	0
bin	0.00025	0
bin	0.00026	0
bin	0.00027	0
bin	0.00028	0
bin	0.00029	0
bin	0.0003	0
bin	0.00031	0
bin	0.00032	0
bin	0.00033	0
bin	0.00034	0
bin	0.00035	0
bin	0.00036	0
bin	0.00037	19
bin	0.00038	0
bin	0.00039	0
bin	0.0004	0
bin	0.00041	0
bin	0.00042	0
bin	0.00043	0
bin	0.00044	0
bin	0.00045	0
bin	0.00046	0
bin	0.00047	0
scalar scenario.client[0].ppp[1].ppp.queue queueLength:max 1
attr interpolationmode sample-hold
attr source "count(packetPushed) - count(packetPopped) - count(packetRemoved) - count(packetDropped)"
attr title "queue length, max"
scalar scenario.client[0].ppp[1].ppp.queue queueLength:timeavg 4.6476550656409e-007
attr interpolationmode sample-hold
attr source "count(packetPushed) - count(packetPopped) - count(packetRemoved) - count(packetDropped)"
attr title "queue length, timeavg"
scalar scenario.client[0].ppp[1].ppp.queue packetPushed:count 129
attr interpolationmode none
attr title "packet pushed, count"
scalar scenario.client[0].ppp[1].ppp.queue packetPushed:sum(packetBytes) 5238
attr interpolationmode none
attr title "packet pushed, sum(packetBytes)"
scalar scenario.client[0].ppp[1].ppp.queue packetDropQueueOverflow:count 0
attr interpolationmode none
attr source packetDropReasonIsQueueOverflow(packetDropped)
attr title "packet drops: queue overflow, count"
scalar scenario.client[0].ppp[1].ppp.queue packetDropQueueOverflow:sum(packetBytes) 0
attr interpolationmode none
attr source packetDropReasonIsQueueOverflow(packetDropped)
attr title "packet drops: queue overflow, sum(packetBytes)"
scalar scenario.client[0].ppp[1].ppp.queue packetRemoved:count 0
attr interpolationmode none
attr title "packets removed, count"
scalar scenario.client[0].ppp[1].ppp.queue packetRemoved:sum(packetBytes) 0
attr interpolationmode none
attr title "packets removed, sum(packetBytes)"
scalar scenario.client[0].ppp[1].ppp txPk:count 129
attr interpolationmode none
attr source packetSentToLower
attr title "packets transmitted, count"
scalar scenario.client[0].ppp[1].ppp txPk:sum(packetBytes) 6141
attr interpolationmode none
attr source packetSentToLower
attr title "packets transmitted, sum(packetBytes)"
scalar scenario.client[0].ppp[1].ppp rcvdPkFromHl:count 129
attr interpolationmode none
attr source packetReceivedFromUpper
attr title "packets received from higher layer, count"
scalar scenario.client[0].ppp[1].ppp rcvdPkFromHl:sum(packetBytes) 5238
attr interpolationmode none
attr source packetReceivedFromUpper
attr title "packets received from higher layer, sum(packetBytes)"
scalar scenario.client[0].ppp[1].ppp passedUpPk:count 129
attr interpolationmode none
attr source packetSentToUpper
attr title "packets passed to higher layer, count"
scalar scenario.client[0].ppp[1].ppp passedUpPk:sum(packetBytes) 5229
attr interpolationmode none
attr source packetSentToUpper
attr title "packets passed to higher layer, sum(packetBytes)"
scalar scenario.client[0].ppp[1].ppp packetDropIncorrectlyReceived:count 0
attr interpolationmode none
attr source packetDropReasonIsIncorrectlyReceived(packetDropped)
attr title "packet drop: incorrectly received, count"
scalar scenario.client[0].ppp[1].ppp packetDropIncorrectlyReceived:sum(packetBytes) 0
attr interpolationmode none
attr source packetDropReasonIsIncorrectlyReceived(packetDropped)
attr title "packet drop: incorrectly received, sum(packetBytes)"
scalar scenario.client[0].ppp[1].ppp packetDropInterfaceDown:count 0
attr interpolationmode none
attr source packetDropReasonIsInterfaceDown(packetDropped)
attr title "packet drop: interface down, count"
scalar scenario.client[0].ppp[1].ppp packetDropInterfaceDown:sum(packetBytes) 0
attr interpolationmode none
attr source packetDropReasonIsInterfaceDown(packetDropped)
attr title "packet drop: interface down, sum(packetBytes)"
scalar scenario.client[0].ppp[1].ppp rxPkOk:count 129
attr interpolationmode none
attr source rxPkOk
attr title "packets received OK, count"
scalar scenario.client[0].ppp[1].ppp rxPkOk:sum(packetBytes) 6132
attr interpolationmode none
attr source rxPkOk
attr title "packets received OK, sum(packetBytes)"
scalar scenario.client[0].ppp[1].ppp transmissionState:timeavg 3.1959406713505e-006
attr interpolationmode sample-hold
attr source transmissionStateChanged
attr title "tx state, timeavg"
scalar scenario.client[0].ppp[2].ppp.queue packetPopped:count 127
attr interpolationmode none
attr title "packet popped, count"
scalar scenario.client[0].ppp[2].ppp.queue packetPopped:sum(packetBytes) 5158
attr interpolationmode none
attr title "packet popped, sum(packetBytes)"
statistic scenario.client[0].ppp[2].ppp.queue queueingTime:histogram
field count 127
field mean 5.9212598425197e-005
field stddev 0.00013750155150185
field min 0
field max 0.000376
field sum 0.00752
field sqrsum 2.82752e-006
attr interpolationmode none
attr source queueingTime(packetPopped)
attr title "queueing times, histogram"
attr unit s
bin	-inf	0
bin	0	107
bin	1e-005	0
bin	2e-005	0
bin	3e-005	0
bin	4e-005	0
bin	5e-005	0
bin	6e-005	0
bin	7e-005	0
bin	8e-005	0
bin	9e-005	0
bin	0.0001	0
bin	0.00011	0
bin	0.00012	0
bin	0.00013	0
bin	0.00014	0
bin	0.00015	0
bin	0.00016	0
bin	0.00017	0
bin	0.00018	0
bin	0.00019	0
bin	0.0002	0
bin	0.00021	0
bin	0.00022	0
bin	0.00023	0
bin	0.00024	0
bin	0.00025	0
bin	0.00026	0
bin	0.00027	0
bin	0.00028	0
bin	0.00029	0
bin	0.0003	0
bin	0.00031	0
bin	0.00032	0
bin	0.00033	0
bin	0.00034	0
bin	0.00035	0
bin	0.00036	0
bin	0.00037	20
bin	0.00038	0
bin	0.00039	0
bin	0.0004	0
bin	0.00041	0
bin	0.00042	0
bin	0.00043	0
bin	0.00044	0
bin	0.00045	0
bin	0.00046	0
bin	0.00047	0
scalar scenario.client[0].ppp[2].ppp.queue queueLength:max 1
attr interpolationmode sample-hold
attr source "count(packetPushed) - count(packetPopped) - count(packetRemoved) - count(packetDropped)"
attr title "queue length, max"
scalar scenario.client[0].ppp[2].ppp.queue queueLength:timeavg 4.8924003350064e-007
attr interpolationmode sample-hold
attr source "count(packetPushed) - count(packetPopped) - count(packetRemoved) - count(packetDropped)"
attr title "queue length, timeavg"
scalar scenario.client[0].ppp[2].ppp.queue packetPushed:count 127
attr interpolationmode none
attr title "packet pushed, count"
scalar scenario.client[0].ppp[2].ppp.queue packetPushed:sum(packetBytes) 5158
attr interpolationmode none
attr title "packet pushed, sum(packetBytes)"
scalar scenario.client[0].ppp[2].ppp.queue packetDropQueueOverflow:count 0
attr interpolationmode none
attr source packetDropReasonIsQueueOverflow(packetDropped)
attr title "packet drops: queue overflow, count"
scalar scenario.client[0].ppp[2].ppp.queue packetDropQueueOverflow:sum(packetBytes) 0
attr interpolationmode none
attr source packetDropReasonIsQueueOverflow(packetDropped)
attr title "packet drops: queue overflow, sum(packetBytes)"
scalar scenario.client[0].ppp[2].ppp.queue packetRemoved:count 0
attr interpolationmode none
attr title "packets removed, count"
scalar scenario.client[0].ppp[2].ppp.queue packetRemoved:sum(packetBytes) 0
attr interpolationmode none
attr title "packets removed, sum(packetBytes)"
scalar scenario.client[0].ppp[2].ppp txPk:count 127
attr interpolationmode none
attr source packetSentToLower
attr title "packets transmitted, count"
scalar scenario.client[0].ppp[2].ppp txPk:sum(packetBytes) 6047
attr interpolationmode none
attr source packetSentToLower
attr title "packets transmitted, sum(packetBytes)"
scalar scenario.client[0].ppp[2].ppp rcvdPkFromHl:count 127
attr interpolationmode none
attr source packetReceivedFromUpper
attr title "packets received from higher layer, count"
scalar scenario.client[0].ppp[2].ppp rcvdPkFromHl:sum(packetBytes) 5158
attr interpolationmode none
attr source packetReceivedFromUpper
attr title "packets received from higher layer, sum(packetBytes)"
scalar scenario.client[0].ppp[2].ppp passedUpPk:count 127
attr interpolationmode none
attr source packetSentToUpper
attr title "packets passed to higher layer, count"
scalar scenario.client[0].ppp[2].ppp passedUpPk:sum(packetBytes) 5147
attr interpolationmode none
attr source packetSentToUpper
attr title "packets passed to higher layer, sum(packetBytes)"
scalar scenario.client[0].ppp[2].ppp packetDropIncorrectlyReceived:count 0
attr interpolationmode none
attr source packetDropReasonIsIncorrectlyReceived(packetDropped)
attr title "packet drop: incorrectly received, count"
scalar scenario.client[0].ppp[2].ppp packetDropIncorrectlyReceived:sum(packetBytes) 0
attr interpolationmode none
attr source packetDropReasonIsIncorrectlyReceived(packetDropped)
attr title "packet drop: incorrectly received, sum(packetBytes)"
scalar scenario.client[0].ppp[2].ppp packetDropInterfaceDown:count 0
attr interpolationmode none
attr source packetDropReasonIsInterfaceDown(packetDropped)
attr title "packet drop: interface down, count"
scalar scenario.client[0].ppp[2].ppp packetDropInterfaceDown:sum(packetBytes) 0
attr interpolationmode none
attr source packetDropReasonIsInterfaceDown(packetDropped)
attr title "packet drop: interface down, sum(packetBytes)"
scalar scenario.client[0].ppp[2].ppp rxPkOk:count 127
attr interpolationmode none
attr source rxPkOk
attr title "packets received OK, count"
scalar scenario.client[0].ppp[2].ppp rxPkOk:sum(packetBytes) 6036
attr interpolationmode none
attr source rxPkOk
attr title "packets received OK, sum(packetBytes)"
scalar scenario.client[0].ppp[2].ppp transmissionState:timeavg 3.1470205568566e-006
attr interpolationmode sample-hold
attr source transmissionStateChanged
attr title "tx state, timeavg"
scalar scenario.client[0].ppp[3].ppp.queue packetPopped:count 128
attr interpolationmode none
attr title "packet popped, count"
scalar scenario.client[0].ppp[3].ppp.queue packetPopped:sum(packetBytes) 5197
attr interpolationmode none
attr title "packet popped, sum(packetBytes)"
statistic scenario.client[0].ppp[3].ppp.queue queueingTime:histogram
field count 128
field mean 5.58125e-005
field stddev 0.00013420572702144
field min 0
field max 0.000376
field sum 0.007144
field sqrsum 2.686144e-006
attr interpolationmode none
attr source queueingTime(packetPopped)
attr title "queueing times, histogram"
attr unit s
bin	-inf	0
bin	0	109
bin	1e-005	0
bin	2e-005	0
bin	3e-005	0
bin	4e-005	0
bin	5e-005	0
bin	6e-005	0
bin	7e-005	0
bin	8e-005	0
bin	9e-005	0
bin	0.0001	0
bin	0.00011	0
bin	0.00012	0
bin	0.00013	0
bin	0.00014	0
bin	0.00015	0
bin	0.00016	0
bin	0.00017	0
bin	0.00018	0
bin	0.00019	0
bin	0.0002	0
bin	0.00021	0
bin	0.00022	0
bin	0.00023	0
bin	0.00024	0
bin	0.00025	0
bin	0.00026	0
bin	0.00027	0
bin	0.00028	0
bin	0.00029	0
bin	0.0003	0
bin	0.00031	0
bin	0.00032	0
bin	0.00033	0
bin	0.00034	0
bin	0.00035	0
bin	0.00036	0
bin	0.00037	19
bin	0.00038	0
bin	0.00039	0
bin	0.0004	0
bin	0.00041	0
bin	0.00042	0
bin	0.00043	0
bin	0.00044	0
bin	0.00045	0
bin	0.00046	0
bin	0.00047	0
scalar scenario.client[0].ppp[3].ppp.queue queueLength:max 1
attr interpolationmode sample-hold
attr source "count(packetPushed) - count(packetPopped) - count(packetRemoved) - count(packetDropped)"
attr title "queue length, max"
scalar scenario.client[0].ppp[3].ppp.queue queueLength:timeavg 4.647917024823e-007
attr interpolationmode sample-hold
attr source "count(packetPushed) - count(packetPopped) - count(packetRemoved) - count(packetDropped)"
attr title "queue length, timeavg"
scalar scenario.client[0].ppp[3].ppp.queue packetPushed:count 128
attr interpolationmode none
attr title "packet pushed, count"
scalar scenario.client[0].ppp[3].ppp.queue packetPushed:sum(packetBytes) 5197
attr interpolationmode none
attr title "packet pushed, sum(packetBytes)"
scalar scenario.client[0].ppp[3].ppp.queue packetDropQueueOverflow:count 0
attr interpolationmode none
attr source packetDropReasonIsQueueOverflow(packetDropped)
attr title "packet drops: queue overflow, count"
scalar scenario.client[0].ppp[3].ppp.queue packetDropQueueOverflow:sum(packetBytes) 0
attr interpolationmode none
attr source packetDropReasonIsQueueOverflow(packetDropped)
attr title "packet drops: queue overflow, sum(packetBytes)"
scalar scenario.client[0].ppp[3].ppp.queue packetRemoved:count 0
attr interpolationmode none
attr title "packets removed, count"
scalar scenario.client[0].ppp[3].ppp.queue packetRemoved:sum(packetBytes) 0
attr interpolationmode none
attr title "packets removed, sum(packetBytes)"
scalar scenario.client[0].ppp[3].ppp txPk:count 128
attr interpolationmode none
attr source packetSentToLower
attr title "packets transmitted, count"
scalar scenario.client[0].ppp[3].ppp txPk:sum(packetBytes) 6093
attr interpolationmode none
attr source packetSentToLower
attr title "packets transmitted, sum(packetBytes)"
scalar scenario.client[0].ppp[3].ppp rcvdPkFromHl:count 128
attr interpolationmode none
attr source packetReceivedFromUpper
attr title "packets received from higher layer, count"
scalar scenario.client[0].ppp[3].ppp rcvdPkFromHl:sum(packetBytes) 5197
attr interpolationmode none
attr source packetReceivedFromUpper
attr title "packets received from higher layer, sum(packetBytes)"
scalar scenario.client[0].ppp[3].ppp passedUpPk:count 128
attr interpolationmode none
attr source packetSentToUpper
attr title "packets passed to higher layer, count"
scalar scenario.client[0].ppp[3].ppp passedUpPk:sum(packetBytes) 5189
attr interpolationmode none
attr source packetSentToUpper
attr title "packets passed to higher layer, sum(packetBytes)"
scalar scenario.client[0].ppp[3].ppp packetDropIncorrectlyReceived:count 0
attr interpolationmode none
attr source packetDropReasonIsIncorrectlyReceived(packetDropped)
attr title "packet drop: incorrectly received, count"
scalar scenario.client[0].ppp[3].ppp packetDropIncorrectlyReceived:sum(packetBytes) 0
attr interpolationmode none
attr source packetDropReasonIsIncorrectlyReceived(packetDropped)
attr title "packet drop: incorrectly received, sum(packetBytes)"
scalar scenario.client[0].ppp[3].ppp packetDropInterfaceDown:count 0
attr interpolationmode none
attr source packetDropReasonIsInterfaceDown(packetDropped)
attr title "packet drop: interface down, count"
scalar scenario.client[0].ppp[3].ppp packetDropInterfaceDown:sum(packetBytes) 0
attr interpolationmode none
attr source packetDropReasonIsInterfaceDown(packetDropped)
attr title "packet drop: interface down, sum(packetBytes)"
scalar scenario.client[0].ppp[3].ppp rxPkOk:count 128
attr interpolationmode none
attr source rxPkOk
attr title "packets received OK, count"
scalar scenario.client[0].ppp[3].ppp rxPkOk:sum(packetBytes) 6085
attr interpolationmode none
attr source rxPkOk
attr title "packets received OK, sum(packetBytes)"
scalar scenario.client[0].ppp[3].ppp transmissionState:timeavg 3.1709601873536e-006
attr interpolationmode sample-hold
attr source transmissionStateChanged
attr title "tx state, timeavg"
scalar scenario.client[0].ppp[4].ppp.queue packetPopped:count 38
attr interpolationmode none
attr title "packet popped, count"
scalar scenario.client[0].ppp[4].ppp.queue packetPopped:sum(packetBytes) 1551
attr interpolationmode none
attr title "packet popped, sum(packetBytes)"
statistic scenario.client[0].ppp[4].ppp.queue queueingTime:histogram
field count 38
field mean 9.8947368421053e-006
field stddev 6.0995254345167e-005
field min 0
field max 0.000376
field sum 0.000376
field sqrsum 1.41376e-007
attr interpolationmode none
attr source queueingTime(packetPopped)
attr title "queueing times, histogram"
attr unit s
bin	-inf	0
bin	0	37
bin	1e-005	0
bin	2e-005	0
bin	3e-005	0
bin	4e-005	0
bin	5e-005	0
bin	6e-005	0
bin	7e-005	0
bin	8e-005	0
bin	9e-005	0
bin	0.0001	0
bin	0.00011	0
bin	0.00012	0
bin	0.00013	0
bin	0.00014	0
bin	0.00015	0
bin	0.00016	0
bin	0.00017	0
bin	0.00018	0
bin	0.00019	0
bin	0.0002	0
bin	0.00021	0
bin	0.00022	0
bin	0.00023	0
bin	0.00024	0
bin	0.00025	0
bin	0.00026	0
bin	0.00027	0
bin	0.00028	0
bin	0.00029	0
bin	0.0003	0
bin	0.00031	0
bin	0.00032	0
bin	0.00033	0
bin	0.00034	0
bin	0.00035	0
bin	0.00036	0
bin	0.00037	1
bin	0.00038	0
bin	0.00039	0
bin	0.0004	0
bin	0.00041	0
bin	0.00042	0
bin	0.00043	0
bin	0.00044	0
bin	0.00045	0
bin	0.00046	0
bin	0.00047	0
scalar scenario.client[0].ppp[4].ppp.queue queueLength:max 1
attr interpolationmode sample-hold
attr source "count(packetPushed) - count(packetPopped) - count(packetRemoved) - count(packetDropped)"
attr title "queue length, max"
scalar scenario.client[0].ppp[4].ppp.queue queueLength:timeavg 2.446165000398e-008
attr interpolationmode sample-hold
attr source "count(packetPushed) - count(packetPopped) - count(packetRemoved) - count(packetDropped)"
attr title "queue length, timeavg"
scalar scenario.client[0].ppp[4].ppp.queue packetPushed:count 38
attr interpolationmode none
attr title "packet pushed, count"
scalar scenario.client[0].ppp[4].ppp.queue packetPushed:sum(packetBytes) 1551
attr interpolationmode none
attr title "packet pushed, sum(packetBytes)"
scalar scenario.client[0].ppp[4].ppp.queue packetDropQueueOverflow:count 0
attr interpolationmode none
attr source packetDropReasonIsQueueOverflow(packetDropped)
attr title "packet drops: queue overflow, count"
scalar scenario.client[0].ppp[4].ppp.queue packetDropQueueOverflow:sum(packetBytes) 0
attr interpolationmode none
attr source packetDropReasonIsQueueOverflow(packetDropped)
attr title "packet drops: queue overflow, sum(packetBytes)"
scalar scenario.client[0].ppp[4].ppp.queue packetRemoved:count 0
attr interpolationmode none
attr title "packets removed, count"
scalar scenario.client[0].ppp[4].ppp.queue packetRemoved:sum(packetBytes) 0
attr interpolationmode none
attr title "packets removed, sum(packetBytes)"
scalar scenario.client[0].ppp[4].ppp txPk:count 38
attr interpolationmode none
attr source packetSentToLower
attr title "packets transmitted, count"
scalar scenario.client[0].ppp[4].ppp txPk:sum(packetBytes) 1817
attr interpolationmode none
attr source packetSentToLower
attr title "packets transmitted, sum(packetBytes)"
scalar scenario.client[0].ppp[4].ppp rcvdPkFromHl:count 38
attr interpolationmode none
attr source packetReceivedFromUpper
attr title "packets received from higher layer, count"
scalar scenario.client[0].ppp[4].ppp rcvdPkFromHl:sum(packetBytes) 1551
attr interpolationmode none
attr source packetReceivedFromUpper
attr title "packets received from higher layer, sum(packetBytes)"
scalar scenario.client[0].ppp[4].ppp passedUpPk:count 38
attr interpolationmode none
attr source packetSentToUpper
attr title "packets passed to higher layer, count"
scalar scenario.client[0].ppp[4].ppp passedUpPk:sum(packetBytes) 1542
attr interpolationmode none
attr source packetSentToUpper
attr title "packets passed to higher layer, sum(packetBytes)"
scalar scenario.client[0].ppp[4].ppp packetDropIncorrectlyReceived:count 0
attr interpolationmode none
attr source packetDropReasonIsIncorrectlyReceived(packetDropped)
attr title "packet drop: incorrectly received, count"
scalar scenario.client[0].ppp[4].ppp packetDropIncorrectlyReceived:sum(packetBytes) 0
attr interpolationmode none
attr source packetDropReasonIsIncorrectlyReceived(packetDropped)
attr title "packet drop: incorrectly received, sum(packetBytes)"
scalar scenario.client[0].ppp[4].ppp packetDropInterfaceDown:count 0
attr interpolationmode none
attr source packetDropReasonIsInterfaceDown(packetDropped)
attr title "packet drop: interface down, count"
scalar scenario.client[0].ppp[4].ppp packetDropInterfaceDown:sum(packetBytes) 0
attr interpolationmode none
attr source packetDropReasonIsInterfaceDown(packetDropped)
attr title "packet drop: interface down, sum(packetBytes)"
scalar scenario.client[0].ppp[4].ppp rxPkOk:count 38
attr interpolationmode none
attr source rxPkOk
attr title "packets received OK, count"
scalar scenario.client[0].ppp[4].ppp rxPkOk:sum(packetBytes) 1808
attr interpolationmode none
attr source rxPkOk
attr title "packets received OK, sum(packetBytes)"
scalar scenario.client[0].ppp[4].ppp transmissionState:timeavg 9.456154046318e-007
attr interpolationmode sample-hold
attr source transmissionStateChanged
attr title "tx state, timeavg"
scalar scenario.client[0].ppp[5].ppp.queue packetPopped:count 89
attr interpolationmode none
attr title "packet popped, count"
scalar scenario.client[0].ppp[5].ppp.queue packetPopped:sum(packetBytes) 3617
attr interpolationmode none
attr title "packet popped, sum(packetBytes)"
statistic scenario.client[0].ppp[5].ppp.queue queueingTime:histogram
field count 89
field mean 2.9573033707865e-005
field stddev 0.00010179054783324
field min 0
field max 0.000376
field sum 0.002632
field sqrsum 9.89632e-007
attr interpolationmode none
attr source queueingTime(packetPopped)
attr title "queueing times, histogram"
attr unit s
bin	-inf	0
bin	0	82
bin	1e-005	0
bin	2e-005	0
bin	3e-005	0
bin	4e-005	0
bin	5e-005	0
bin	6e-005	0
bin	7e-005	0
bin	8e-005	0
bin	9e-005	0
bin	0.0001	0
bin	0.00011	0
bin	0.00012	0
bin	0.00013	0
bin	0.00014	0
bin	0.00015	0
bin	0.00016	0
bin	0.00017	0
bin	0.00018	0
bin	0.00019	0
bin	0.0002	0
bin	0.00021	0
bin	0.00022	0
bin	0.00023	0
bin	0.00024	0
bin	0.00025	0
bin	0.00026	0
bin	0.00027	0
bin	0.00028	0
bin	0.00029	0
bin	0.0003	0
bin	0.00031	0
bin	0.00032	0
bin	0.00033	0
bin	0.00034	0
bin	0.00035	0
bin	0.00036	0
bin	0.00037	7
bin	0.00038	0
bin	0.00039	0
bin	0.0004	0
bin	0.00041	0
bin	0.00042	0
bin	0.00043	0
bin	0.00044	0
bin	0.00045	0
bin	0.00046	0
bin	0.00047	0
scalar scenario.client[0].ppp[5].ppp.queue queueLength:max 1
attr interpolationmode sample-hold
attr source "count(packetPushed) - count(packetPopped) - count(packetRemoved) - count(packetDropped)"
attr title "queue length, max"
scalar scenario.client[0].ppp[5].ppp.queue queueLength:timeavg 1.712487019269e-007
attr interpolationmode sample-hold
attr source "count(packetPushed) - count(packetPopped) - count(packetRemoved) - count(packetDropped)"
attr title "queue length, timeavg"
scalar scenario.client[0].ppp[5].ppp.queue packetPushed:count 89
attr interpolationmode none
attr title "packet pushed, count"
scalar scenario.client[0].ppp[5].ppp.queue packetPushed:sum(packetBytes) 3617
attr interpolationmode none
attr title "packet pushed, sum(packetBytes)"
scalar scenario.client[0].ppp[5].ppp.queue packetDropQueueOverflow:count 0
attr interpolationmode none
attr source packetDropReasonIsQueueOverflow(packetDropped)
attr title "packet drops: queue overflow, count"
scalar scenario.client[0].ppp[5].ppp.queue packetDropQueueOverflow:sum(packetBytes) 0
attr interpolationmode none
attr source packetDropReasonIsQueueOverflow(packetDropped)
attr title "packet drops: queue overflow, sum(packetBytes)"
scalar scenario.client[0].ppp[5].ppp.queue packetRemoved:count 0
attr interpolationmode none
attr title "packets removed, count"
scalar scenario.client[0].ppp[5].ppp.queue packetRemoved:sum(packetBytes) 0
attr interpolationmode none
attr title "packets removed, sum(packetBytes)"
scalar scenario.client[0].ppp[5].ppp txPk:count 89
attr interpolationmode none
attr source packetSentToLower
attr title "packets transmitted, count"
scalar scenario.client[0].ppp[5].ppp txPk:sum(packetBytes) 4240
attr interpolationmode none
attr source packetSentToLower
attr title "packets transmitted, sum(packetBytes)"
scalar scenario.client[0].ppp[5].ppp rcvdPkFromHl:count 89
attr interpolationmode none
attr source packetReceivedFromUpper
attr title "packets received from higher layer, count"
scalar scenario.client[0].ppp[5].ppp rcvdPkFromHl:sum(packetBytes) 3617
attr interpolationmode none
attr source packetReceivedFromUpper
attr title "packets received from higher layer, sum(packetBytes)"
scalar scenario.client[0].ppp[5].ppp passedUpPk:count 89
attr interpolationmode none
attr source packetSentToUpper
attr title "packets passed to higher layer, count"
scalar scenario.client[0].ppp[5].ppp passedUpPk:sum(packetBytes) 3610
attr interpolationmode none
attr source packetSentToUpper
attr title "packets passed to higher layer, sum(packetBytes)"
scalar scenario.client[0].ppp[5].ppp packetDropIncorrectlyReceived:count 0
attr interpolationmode none
attr source packetDropReasonIsIncorrectlyReceived(packetDropped)
attr title "packet drop: incorrectly received, count"
scalar scenario.client[0].ppp[5].ppp packetDropIncorrectlyReceived:sum(packetBytes) 0
attr interpolationmode none
attr source packetDropReasonIsIncorrectlyReceived(packetDropped)
attr title "packet drop: incorrectly received, sum(packetBytes)"
scalar scenario.client[0].ppp[5].ppp packetDropInterfaceDown:count 0
attr interpolationmode none
attr source packetDropReasonIsInterfaceDown(packetDropped)
attr title "packet drop: interface down, count"
scalar scenario.client[0].ppp[5].ppp packetDropInterfaceDown:sum(packetBytes) 0
attr interpolationmode none
attr source packetDropReasonIsInterfaceDown(packetDropped)
attr title "packet drop: interface down, sum(packetBytes)"
scalar scenario.client[0].ppp[5].ppp rxPkOk:count 89
attr interpolationmode none
attr source rxPkOk
attr title "packets received OK, count"
scalar scenario.client[0].ppp[5].ppp rxPkOk:sum(packetBytes) 4233
attr interpolationmode none
attr source rxPkOk
attr title "packets received OK, sum(packetBytes)"
scalar scenario.client[0].ppp[5].ppp transmissionState:timeavg 2.2066094197242e-006
attr interpolationmode sample-hold
attr source transmissionStateChanged
attr title "tx state, timeavg"
scalar scenario.client[0].ipv4.ip packetDropAddressResolutionFailed:count 0
attr interpolationmode none
attr source packetDropReasonIsAddressResolutionFailed(packetDropped)
attr title "packet drop: address resolution failed, count"
scalar scenario.client[0].ipv4.ip packetDropAddressResolutionFailed:sum(packetBytes) 0
attr interpolationmode none
attr source packetDropReasonIsAddressResolutionFailed(packetDropped)
attr title "packet drop: address resolution failed, sum(packetBytes)"
scalar scenario.client[0].ipv4.ip packetDropHopLimitReached:count 0
attr interpolationmode none
attr source packetDropReasonIsHopLimitReached(packetDropped)
attr title "packet drop: hop limit reached, count"
scalar scenario.client[0].ipv4.ip packetDropHopLimitReached:sum(packetBytes) 0
attr interpolationmode none
attr source packetDropReasonIsHopLimitReached(packetDropped)
attr title "packet drop: hop limit reached, sum(packetBytes)"
scalar scenario.client[0].ipv4.ip packetDropForwardingDisabled:count 0
attr interpolationmode none
attr source packetDropReasonIsForwardingDisabled(packetDropped)
attr title "packet drop: forwarding disabled, count"
scalar scenario.client[0].ipv4.ip packetDropForwardingDisabled:sum(packetBytes) 0
attr interpolationmode none
attr source packetDropReasonIsForwardingDisabled(packetDropped)
attr title "packet drop: forwarding disabled, sum(packetBytes)"
scalar scenario.client[0].ipv4.ip packetDropNoInterfaceFound:count 0
attr interpolationmode none
attr source packetDropReasonIsNoInterfaceFound(packetDropped)
attr title "packet drop: no interface found, count"
scalar scenario.client[0].ipv4.ip packetDropNoInterfaceFound:sum(packetBytes) 0
attr interpolationmode none
attr source packetDropReasonIsNoInterfaceFound(packetDropped)
attr title "packet drop: no interface found, sum(packetBytes)"
scalar scenario.client[0].ipv4.ip packetDropNoRouteFound:count 0
attr interpolationmode none
attr source packetDropReasonIsNoRouteFound(packetDropped)
attr title "packet drop: no route found, count"
scalar scenario.client[0].ipv4.ip packetDropNoRouteFound:sum(packetBytes) 0
attr interpolationmode none
attr source packetDropReasonIsNoRouteFound(packetDropped)
attr title "packet drop: no route found, sum(packetBytes)"
scalar scenario.client[0].ipv4.ip packetDropUndefined:count 0
attr interpolationmode none
attr source packetDropReasonIsUndefined(packetDropped)
attr title "packet drop: undefined, count"
scalar scenario.client[0].ipv4.ip packetDropUndefined:sum(packetBytes) 0
attr interpolationmode none
attr source packetDropReasonIsUndefined(packetDropped)
attr title "packet drop: undefined, sum(packetBytes)"
scalar scenario.client[0].ipv4.arp arpReplySent:count 0
attr source arpReplySent
attr title "ARP replies sent, count"
scalar scenario.client[0].ipv4.arp arpReplySent:sum(packetBytes) 0
attr source arpReplySent
attr title "ARP replies sent, sum(packetBytes)"
scalar scenario.client[0].ipv4.arp arpRequestSent:count 0
attr source arpRequestSent
attr title "ARP request sent, count"
scalar scenario.client[0].ipv4.arp arpRequestSent:sum(packetBytes) 0
attr source arpRequestSent
attr title "ARP request sent, sum(packetBytes)"
scalar scenario.client[0].ipv4.arp arpResolutionFailed:count 0
attr title "ARP failed resolutions, count"
scalar scenario.client[0].ipv4.arp arpResolutionCompleted:count 0
attr title "ARP completed resolutions, count"
scalar scenario.client[0].ipv4.arp arpResolutionInitiated:count 0
attr title "ARP initiated resolutions, count"
scalar scenario.client[0].udp packetReceived:count 0
attr interpolationmode none
attr source packetReceived
attr title "packets received, count"
scalar scenario.client[0].udp packetReceived:sum(packetBytes) 0
attr interpolationmode none
attr source packetReceived
attr title "packets received, sum(packetBytes)"
scalar scenario.client[0].udp packetSent:count 0
attr interpolationmode none
attr source packetSent
attr title "packets sent, count"
scalar scenario.client[0].udp packetSent:sum(packetBytes) 0
attr interpolationmode none
attr source packetSent
attr title "packets sent, sum(packetBytes)"
scalar scenario.client[0].udp passedUpPk:count 0
attr interpolationmode none
attr source packetSentToUpper
attr title "packets passed up, count"
scalar scenario.client[0].udp droppedPkWrongPort:count 0
attr interpolationmode none
attr source packetDropReasonIsNoPortFound(packetDropped)
attr title "packets dropped (wrong port), count"
scalar scenario.client[0].udp droppedPkBadChecksum:count 0
attr interpolationmode none
attr source packetDropReasonIsIncorrectlyReceived(packetDropped)
attr title "packets dropped (checksum error), count"
scalar scenario.client[1].lo[0].lo rcvdPkFromHl:count 0
attr interpolationmode none
attr source packetReceivedFromUpper
attr title "packets received from higher layer, count"
scalar scenario.client[1].lo[0].lo rcvdPkFromHl:sum(packetBytes) 0
attr interpolationmode none
attr source packetReceivedFromUpper
attr title "packets received from higher layer, sum(packetBytes)"
scalar scenario.client[1].lo[0].lo passedUpPk:count 0
attr interpolationmode none
attr source packetSentToUpper
attr title "packets passed to higher layer, count"
scalar scenario.client[1].lo[0].lo passedUpPk:sum(packetBytes) 0
attr interpolationmode none
attr source packetSentToUpper
attr title "packets passed to higher layer, sum(packetBytes)"
scalar scenario.client[1].ppp[0].ppp.queue packetPopped:count 135
attr interpolationmode none
attr title "packet popped, count"
scalar scenario.client[1].ppp[0].ppp.queue packetPopped:sum(packetBytes) 5477
attr interpolationmode none
attr title "packet popped, sum(packetBytes)"
statistic scenario.client[1].ppp[0].ppp.queue queueingTime:histogram
field count 135
field mean 5.8488888888889e-005
field stddev 0.0001367825306701
field min 0
field max 0.000376
field sum 0.007896
field sqrsum 2.968896e-006
attr interpolationmode none
attr source queueingTime(packetPopped)
attr title "queueing times, histogram"
attr unit s
bin	-inf	0
bin	0	114
bin	1e-005	0
bin	2e-005	0
bin	3e-005	0
bin	4e-005	0
bin	5e-005	0
bin	6e-005	0
bin	7e-005	0
bin	8e-005	0
bin	9e-005	0
bin	0.0001	0
bin	0.00011	0
bin	0.00012	0
bin	0.00013	0
bin	0.00014	0
bin	0.00015	0
bin	0.00016	0
bin	0.00017	0
bin	0.00018	0
bin	0.00019	0
bin	0.0002	0
bin	0.00021	0
bin	0.00022	0
bin	0.00023	0
bin	0.00024	0
bin	0.00025	0
bin	0.00026	0
bin	0.00027	0
bin	0.00028	0
bin	0.00029	0
bin	0.0003	0
bin	0.00031	0
bin	0.00032	0
bin	0.00033	0
bin	0.00034	0
bin	0.00035	0
bin	0.00036	0
bin	0.00037	21
bin	0.00038	0
bin	0.00039	0
bin	0.0004	0
bin	0.00041	0
bin	0.00042	0
bin	0.00043	0
bin	0.00044	0
bin	0.00045	0
bin	0.00046	0
bin	0.00047	0
scalar scenario.client[1].ppp[0].ppp.queue queueLength:max 1
attr interpolationmode sample-hold
attr source "count(packetPushed) - count(packetPopped) - count(packetRemoved) - count(packetDropped)"
attr title "queue length, max"
scalar scenario.client[1].ppp[0].ppp.queue queueLength:timeavg 5.1367794076177e-007
attr interpolationmode sample-hold
attr source "count(packetPushed) - count(packetPopped) - count(packetRemoved) - count(packetDropped)"
attr title "queue length, timeavg"
scalar scenario.client[1].ppp[0].ppp.queue packetPushed:count 135
attr interpolationmode none
attr title "packet pushed, count"
scalar scenario.client[1].ppp[0].ppp.queue packetPushed:sum(packetBytes) 5477
attr interpolationmode none
attr title "packet pushed, sum(packetBytes)"
scalar scenario.client[1].ppp[0].ppp.queue packetDropQueueOverflow:count 0
attr interpolationmode none
attr source packetDropReasonIsQueueOverflow(packetDropped)
attr title "packet drops: queue overflow, count"
scalar scenario.client[1].ppp[0].ppp.queue packetDropQueueOverflow:sum(packetBytes) 0
attr interpolationmode none
attr source packetDropReasonIsQueueOverflow(packetDropped)
attr title "packet drops: queue overflow, sum(packetBytes)"
scalar scenario.client[1].ppp[0].ppp.queue packetRemoved:count 0
attr interpolationmode none
attr title "packets removed, count"
scalar scenario.client[1].ppp[0].ppp.queue packetRemoved:sum(packetBytes) 0
attr interpolationmode none
attr title "packets removed, sum(packetBytes)"
scalar scenario.client[1].ppp[0].ppp txPk:count 135
attr interpolationmode none
attr source packetSentToLower
attr title "packets transmitted, count"
scalar scenario.client[1].ppp[0].ppp txPk:sum(packetBytes) 6422
attr interpolationmode none
attr source packetSentToLower
attr title "packets transmitted, sum(packetBytes)"
scalar scenario.client[1].ppp[0].ppp rcvdPkFromHl:count 135
attr interpolationmode none
attr source packetReceivedFromUpper
attr title "packets received from higher layer, count"
scalar scenario.client[1].ppp[0].ppp rcvdPkFromHl:sum(packetBytes) 5477
attr interpolationmode none
attr source packetReceivedFromUpper
attr title "packets received from higher layer, sum(packetBytes)"
scalar scenario.client[1].ppp[0].ppp passedUpPk:count 135
attr interpolationmode none
attr source packetSentToUpper
attr title "packets passed to higher layer, count"
scalar scenario.client[1].ppp[0].ppp passedUpPk:sum(packetBytes) 5476
attr interpolationmode none
attr source packetSentToUpper
attr title "packets passed to higher layer, sum(packetBytes)"
scalar scenario.client[1].ppp[0].ppp packetDropIncorrectlyReceived:count 0
attr interpolationmode none
attr source packetDropReasonIsIncorrectlyReceived(packetDropped)
attr title "packet drop: incorrectly received, count"
scalar scenario.client[1].ppp[0].ppp packetDropIncorrectlyReceived:sum(packetBytes) 0
attr interpolationmode none
attr source packetDropReasonIsIncorrectlyReceived(packetDropped)
attr title "packet drop: incorrectly received, sum(packetBytes)"
scalar scenario.client[1].ppp[0].ppp packetDropInterfaceDown:count 0
attr interpolationmode none
attr source packetDropReasonIsInterfaceDown(packetDropped)
attr title "packet drop: interface down, count"
scalar scenario.client[1].ppp[0].ppp packetDropInterfaceDown:sum(packetBytes) 0
attr interpolationmode none
attr source packetDropReasonIsInterfaceDown(packetDropped)
attr title "packet drop: interface down, sum(packetBytes)"
scalar scenario.client[1].ppp[0].ppp rxPkOk:count 135
attr interpolationmode none
attr source rxPkOk
attr title "packets received OK, count"
scalar scenario.client[1].ppp[0].ppp rxPkOk:sum(packetBytes) 6421
attr interpolationmode none
attr source rxPkOk
attr title "packets received OK, sum(packetBytes)"
scalar scenario.client[1].ppp[0].ppp transmissionState:timeavg 3.3421805880822e-006
attr interpolationmode sample-hold
attr source transmissionStateChanged
attr title "tx state, timeavg"
scalar scenario.client[1].ppp[1].ppp.queue packetPopped:count 116
attr interpolationmode none
attr title "packet popped, count"
scalar scenario.client[1].ppp[1].ppp.queue packetPopped:sum(packetBytes) 4712
attr interpolationmode none
attr title "packet popped, sum(packetBytes)"
statistic scenario.client[1].ppp[1].ppp.queue queueingTime:histogram
field count 116
field mean 6.1586206896552e-005
field stddev 0.00013975668726105
field min 0
field max 0.000376
field sum 0.007144
field sqrsum 2.686144e-006
attr interpolationmode none
attr source queueingTime(packetPopped)
attr title "queueing times, histogram"
attr unit s
bin	-inf	0
bin	0	97
bin	1e-005	0
bin	2e-005	0
bin	3e-005	0
bin	4e-005	0
bin	5e-005	0
bin	6e-005	0
bin	7e-005	0
bin	8e-005	0
bin	9e-005	0
bin	0.0001	0
bin	0.00011	0
bin	0.00012	0
bin	0.00013	0
bin	0.00014	0
bin	0.00015	0
bin	0.00016	0
bin	0.00017	0
bin	0.00018	0
bin	0.00019	0
bin	0.0002	0
bin	0.00021	0
bin	0.00022	0
bin	0.00023	0
bin	0.00024	0
bin	0.00025	0
bin	0.00026	0
bin	0.00027	0
bin	0.00028	0
bin	0.00029	0
bin	0.0003	0
bin	0.00031	0
bin	0.00032	0
bin	0.00033	0
bin	0.00034	0
bin	0.00035	0
bin	0.00036	0
bin	0.00037	19
bin	0.00038	0
bin	0.00039	0
bin	0.0004	0
bin	0.00041	0
bin	0.00042	0
bin	0.00043	0
bin	0.00044	0
bin	0.00045	0
bin	0.00046	0
bin	0.00047	0
scalar scenario.client[1].ppp[1].ppp.queue queueLength:max 1
attr interpolationmode sample-hold
attr source "count(packetPushed) - count(packetPopped) - count(packetRemoved) - count(packetDropped)"
attr title "queue length, max"
scalar scenario.client[1].ppp[1].ppp.queue queueLength:timeavg 4.6485537414179e-007
attr interpolationmode sample-hold
attr source "count(packetPushed) - count(packetPopped) - count(packetRemoved) - count(packetDropped)"
attr title "queue length, timeavg"
scalar scenario.client[1].ppp[1].ppp.queue packetPushed:count 116
attr interpolationmode none
attr title "packet pushed, count"
scalar scenario.client[1].ppp[1].ppp.queue packetPushed:sum(packetBytes) 4712
attr interpolationmode none
attr title "packet pushed, sum(packetBytes)"
scalar scenario.client[1].ppp[1].ppp.queue packetDropQueueOverflow:count 0
attr interpolationmode none
attr source packetDropReasonIsQueueOverflow(packetDropped)
attr title "packet drops: queue overflow, count"
scalar scenario.client[1].ppp[1].ppp.queue packetDropQueueOverflow:sum(packetBytes) 0
attr interpolationmode none
attr source packetDropReasonIsQueueOverflow(packetDropped)
attr title "packet drops: queue overflow, sum(packetBytes)"
scalar scenario.client[1].ppp[1].ppp.queue packetRemoved:count 0
attr interpolationmode none
attr title "packets removed, count"
scalar scenario.client[1].ppp[1].ppp.queue packetRemoved:sum(packetBytes) 0
attr interpolationmode none
attr title "packets removed, sum(packetBytes)"
scalar scenario.client[1].ppp[1].ppp txPk:count 116
attr interpolationmode none
attr source packetSentToLower
attr title "packets transmitted, count"
scalar scenario.client[1].ppp[1].ppp txPk:sum(packetBytes) 5524
attr interpolationmode none
attr source packetSentToLower
attr title "packets transmitted, sum(packetBytes)"
scalar scenario.client[1].ppp[1].ppp rcvdPkFromHl:count 116
attr interpolationmode none
attr source packetReceivedFromUpper
attr title "packets received from higher layer, count"
scalar scenario.client[1].ppp[1].ppp rcvdPkFromHl:sum(packetBytes) 4712
attr interpolationmode none
attr source packetReceivedFromUpper
attr title "packets received from higher layer, sum(packetBytes)"
scalar scenario.client[1].ppp[1].ppp passedUpPk:count 116
attr interpolationmode none
attr source packetSentToUpper
attr title "packets passed to higher layer, count"
scalar scenario.client[1].ppp[1].ppp passedUpPk:sum(packetBytes) 4702
attr interpolationmode none
attr source packetSentToUpper
attr title "packets passed to higher layer, sum(packetBytes)"
scalar scenario.client[1].ppp[1].ppp packetDropIncorrectlyReceived:count 0
attr interpolationmode none
attr source packetDropReasonIsIncorrectlyReceived(packetDropped)
attr title "packet drop: incorrectly received, count"
scalar scenario.client[1].ppp[1].ppp packetDropIncorrectlyReceived:sum(packetBytes) 0
attr interpolationmode none
attr source packetDropReasonIsIncorrectlyReceived(packetDropped)
attr title "packet drop: incorrectly received, sum(packetBytes)"
scalar scenario.client[1].ppp[1].ppp packetDropInterfaceDown:count 0
attr interpolationmode none
attr source packetDropReasonIsInterfaceDown(packetDropped)
attr title "packet drop: interface down, count"
scalar scenario.client[1].ppp[1].ppp packetDropInterfaceDown:sum(packetBytes) 0
attr interpolationmode none
attr source packetDropReasonIsInterfaceDown(packetDropped)
attr title "packet drop: interface down, sum(packetBytes)"
scalar scenario.client[1].ppp[1].ppp rxPkOk:count 116
attr interpolationmode none
attr source rxPkOk
attr title "packets received OK, count"
scalar scenario.client[1].ppp[1].ppp rxPkOk:sum(packetBytes) 5514
attr interpolationmode none
attr source rxPkOk
attr title "packets received OK, sum(packetBytes)"
scalar scenario.client[1].ppp[1].ppp transmissionState:timeavg 2.8748373666406e-006
attr interpolationmode sample-hold
attr source transmissionStateChanged
attr title "tx state, timeavg"
scalar scenario.client[1].ppp[2].ppp.queue packetPopped:count 115
attr interpolationmode none
attr title "packet popped, count"
scalar scenario.client[1].ppp[2].ppp.queue packetPopped:sum(packetBytes) 4672
attr interpolationmode none
attr title "packet popped, sum(packetBytes)"
statistic scenario.client[1].ppp[2].ppp.queue queueingTime:histogram
field count 115
field mean 6.5391304347826e-005
field stddev 0.00014314075367385
field min 0
field max 0.000376
field sum 0.00752
field sqrsum 2.82752e-006
attr interpolationmode none
attr source queueingTime(packetPopped)
attr title "queueing times, histogram"
attr unit s
bin	-inf	0
bin	0	95
bin	1e-005	0
bin	2e-005	0
bin	3e-005	0
bin	4e-005	0
bin	5e-005	0
bin	6e-005	0
bin	7e-005	0
bin	8e-005	0
bin	9e-005	0
bin	0.0001	0
bin	0.00011	0
bin	0.00012	0
bin	0.00013	0
bin	0.00014	0
bin	0.00015	0
bin	0.00016	0
bin	0.00017	0
bin	0.00018	0
bin	0.00019	0
bin	0.0002	0
bin	0.00021	0
bin	0.00022	0
bin	0.00023	0
bin	0.00024	0
bin	0.00025	0
bin	0.00026	0
bin	0.00027	0
bin	0.00028	0
bin	0.00029	0
bin	0.0003	0
bin	0.00031	0
bin	0.00032	0
bin	0.00033	0
bin	0.00034	0
bin	0.00035	0
bin	0.00036	0
bin	0.00037	20
bin	0.00038	0
bin	0.00039	0
bin	0.0004	0
bin	0.00041	0
bin	0.00042	0
bin	0.00043	0
bin	0.00044	0
bin	0.00045	0
bin	0.00046	0
bin	0.00047	0
scalar scenario.client[1].ppp[2].ppp.queue queueLength:max 1
attr interpolationmode sample-hold
attr source "count(packetPushed) - count(packetPopped) - count(packetRemoved) - count(packetDropped)"
attr title "queue length, max"
scalar scenario.client[1].ppp[2].ppp.queue queueLength:timeavg 4.8932027517588e-007
attr interpolationmode sample-hold
attr source "count(packetPushed) - count(packetPopped) - count(packetRemoved) - count(packetDropped)"
attr title "queue length, timeavg"
scalar scenario.client[1].ppp[2].ppp.queue packetPushed:count 115
attr interpolationmode none
attr title "packet pushed, count"
scalar scenario.client[1].ppp[2].ppp.queue packetPushed:sum(packetBytes) 4672
attr interpolationmode none
attr title "packet pushed, sum(packetBytes)"
scalar scenario.client[1].ppp[2].ppp.queue packetDropQueueOverflow:count 0
attr interpolationmode none
attr source packetDropReasonIsQueueOverflow(packetDropped)
attr title "packet drops: queue overflow, count"
scalar scenario.client[1].ppp[2].ppp.queue packetDropQueueOverflow:sum(packetBytes) 0
attr interpolationmode none
attr source packetDropReasonIsQueueOverflow(packetDropped)
attr title "packet drops: queue overflow, sum(packetBytes)"
scalar scenario.client[1].ppp[2].ppp.queue packetRemoved:count 0
attr interpolationmode none
attr title "packets removed, count"
scalar scenario.client[1].ppp[2].ppp.queue packetRemoved:sum(packetBytes) 0
attr interpolationmode none
attr title "packets removed, sum(packetBytes)"
scalar scenario.client[1].ppp[2].ppp txPk:count 115
attr interpolationmode none
attr source packetSentToLower
attr title "packets transmitted, count"
scalar scenario.client[1].ppp[2].ppp txPk:sum(packetBytes) 5477
attr interpolationmode none
attr source packetSentToLower
attr title "packets transmitted, sum(packetBytes)"
scalar scenario.client[1].ppp[2].ppp rcvdPkFromHl:count 115
attr interpolationmode none
attr source packetReceivedFromUpper
attr title "packets received from higher layer, count"
scalar scenario.client[1].ppp[2].ppp rcvdPkFromHl:sum(packetBytes) 4672
attr interpolationmode none
attr source packetReceivedFromUpper
attr title "packets received from higher layer, sum(packetBytes)"
scalar scenario.client[1].ppp[2].ppp passedUpPk:count 115
attr interpolationmode none
attr source packetSentToUpper
attr title "packets passed to higher layer, count"
scalar scenario.client[1].ppp[2].ppp passedUpPk:sum(packetBytes) 4661
attr interpolationmode none
attr source packetSentToUpper
attr title "packets passed to higher layer, sum(packetBytes)"
scalar scenario.client[1].ppp[2].ppp packetDropIncorrectlyReceived:count 0
attr interpolationmode none
attr source packetDropReasonIsIncorrectlyReceived(packetDropped)
attr title "packet drop: incorrectly received, count"
scalar scenario.client[1].ppp[2].ppp packetDropIncorrectlyReceived:sum(packetBytes) 0
attr interpolationmode none
attr source packetDropReasonIsIncorrectlyReceived(packetDropped)
attr title "packet drop: incorrectly received, sum(packetBytes)"
scalar scenario.client[1].ppp[2].ppp packetDropInterfaceDown:count 0
attr interpolationmode none
attr source packetDropReasonIsInterfaceDown(packetDropped)
attr title "packet drop: interface down, count"
scalar scenario.client[1].ppp[2].ppp packetDropInterfaceDown:sum(packetBytes) 0
attr interpolationmode none
attr source packetDropReasonIsInterfaceDown(packetDropped)
attr title "packet drop: interface down, sum(packetBytes)"
scalar scenario.client[1].ppp[2].ppp rxPkOk:count 115
attr interpolationmode none
attr source rxPkOk
attr title "packets received OK, count"
scalar scenario.client[1].ppp[2].ppp rxPkOk:sum(packetBytes) 5466
attr interpolationmode none
attr source rxPkOk
attr title "packets received OK, sum(packetBytes)"
scalar scenario.client[1].ppp[2].ppp transmissionState:timeavg 2.8503773093937e-006
attr interpolationmode sample-hold
attr source transmissionStateChanged
attr title "tx state, timeavg"
scalar scenario.client[1].ppp[3].ppp.queue packetPopped:count 116
attr interpolationmode none
attr title "packet popped, count"
scalar scenario.client[1].ppp[3].ppp.queue packetPopped:sum(packetBytes) 4711
attr interpolationmode none
attr title "packet popped, sum(packetBytes)"
statistic scenario.client[1].ppp[3].ppp.queue queueingTime:histogram
field count 116
field mean 6.1586206896552e-005
field stddev 0.00013975668726105
field min 0
field max 0.000376
field sum 0.007144
field sqrsum 2.686144e-006
attr interpolationmode none
attr source queueingTime(packetPopped)
attr title "queueing times, histogram"
attr unit s
bin	-inf	0
bin	0	97
bin	1e-005	0
bin	2e-005	0
bin	3e-005	0
bin	4e-005	0
bin	5e-005	0
bin	6e-005	0
bin	7e-005	0
bin	8e-005	0
bin	9e-005	0
bin	0.0001	0
bin	0.00011	0
bin	0.00012	0
bin	0.00013	0
bin	0.00014	0
bin	0.00015	0
bin	0.00016	0
bin	0.00017	0
bin	0.00018	0
bin	0.00019	0
bin	0.0002	0
bin	0.00021	0
bin	0.00022	0
bin	0.00023	0
bin	0.00024	0
bin	0.00025	0
bin	0.00026	0
bin	0.00027	0
bin	0.00028	0
bin	0.00029	0
bin	0.0003	0
bin	0.00031	0
bin	0.00032	0
bin	0.00033	0
bin	0.00034	0
bin	0.00035	0
bin	0.00036	0
bin	0.00037	19
bin	0.00038	0
bin	0.00039	0
bin	0.0004	0
bin	0.00041	0
bin	0.00042	0
bin	0.00043	0
bin	0.00044	0
bin	0.00045	0
bin	0.00046	0
bin	0.00047	0
scalar scenario.client[1].ppp[3].ppp.queue queueLength:max 1
attr interpolationmode sample-hold
attr source "count(packetPushed) - count(packetPopped) - count(packetRemoved) - count(packetDropped)"
attr title "queue length, max"
scalar scenario.client[1].ppp[3].ppp.queue queueLength:timeavg 4.6485468974254e-007
attr interpolationmode sample-hold
attr source "count(packetPushed) - count(packetPopped) - count(packetRemoved) - count(packetDropped)"
attr title "queue length, timeavg"
scalar scenario.client[1].ppp[3].ppp.queue packetPushed:count 116
attr interpolationmode none
attr title "packet pushed, count"
scalar scenario.client[1].ppp[3].ppp.queue packetPushed:sum(packetBytes) 4711
attr interpolationmode none
attr title "packet pushed, sum(packetBytes)"
scalar scenario.client[1].ppp[3].ppp.queue packetDropQueueOverflow:count 0
attr interpolationmode none
attr source packetDropReasonIsQueueOverflow(packetDropped)
attr title "packet drops: queue overflow, count"
scalar scenario.client[1].ppp[3].ppp.queue packetDropQueueOverflow:sum(packetBytes) 0
attr interpolationmode none
attr source packetDropReasonIsQueueOverflow(packetDropped)
attr title "packet drops: queue overflow, sum(packetBytes)"
scalar scenario.client[1].ppp[3].ppp.queue packetRemoved:count 0
attr interpolationmode none
attr title "packets removed, count"
scalar scenario.client[1].ppp[3].ppp.queue packetRemoved:sum(packetBytes) 0
attr interpolationmode none
attr title "packets removed, sum(packetBytes)"
scalar scenario.client[1].ppp[3].ppp txPk:count 116
attr interpolationmode none
attr source packetSentToLower
attr title "packets transmitted, count"
scalar scenario.client[1].ppp[3].ppp txPk:sum(packetBytes) 5523
attr interpolationmode none
attr source packetSentToLower
attr title "packets transmitted, sum(packetBytes)"
scalar scenario.client[1].ppp[3].ppp rcvdPkFromHl:count 116
attr interpolationmode none
attr source packetReceivedFromUpper
attr title "packets received from higher layer, count"
scalar scenario.client[1].ppp[3].ppp rcvdPkFromHl:sum(packetBytes) 4711
attr interpolationmode none
attr source packetReceivedFromUpper
attr title "packets received from higher layer, sum(packetBytes)"
scalar scenario.client[1].ppp[3].ppp passedUpPk:count 116
attr interpolationmode none
attr source packetSentToUpper
attr title "packets passed to higher layer, count"
scalar scenario.client[1].ppp[3].ppp passedUpPk:sum(packetBytes) 4703
attr interpolationmode none
attr source packetSentToUpper
attr title "packets passed to higher layer, sum(packetBytes)"
scalar scenario.client[1].ppp[3].ppp packetDropIncorrectlyReceived:count 0
attr interpolationmode none
attr source packetDropReasonIsIncorrectlyReceived(packetDropped)
attr title "packet drop: incorrectly received, count"
scalar scenario.client[1].ppp[3].ppp packetDropIncorrectlyReceived:sum(packetBytes) 0
attr interpolationmode none
attr source packetDropReasonIsIncorrectlyReceived(packetDropped)
attr title "packet drop: incorrectly received, sum(packetBytes)"
scalar scenario.client[1].ppp[3].ppp packetDropInterfaceDown:count 0
attr interpolationmode none
attr source packetDropReasonIsInterfaceDown(packetDropped)
attr title "packet drop: interface down, count"
scalar scenario.client[1].ppp[3].ppp packetDropInterfaceDown:sum(packetBytes) 0
attr interpolationmode none
attr source packetDropReasonIsInterfaceDown(packetDropped)
attr title "packet drop: interface down, sum(packetBytes)"
scalar scenario.client[1].ppp[3].ppp rxPkOk:count 116
attr interpolationmode none
attr source rxPkOk
attr title "packets received OK, count"
scalar scenario.client[1].ppp[3].ppp rxPkOk:sum(packetBytes) 5515
attr interpolationmode none
attr source rxPkOk
attr title "packets received OK, sum(packetBytes)"
scalar scenario.client[1].ppp[3].ppp transmissionState:timeavg 2.8743169398907e-006
attr interpolationmode sample-hold
attr source transmissionStateChanged
attr title "tx state, timeavg"
scalar scenario.client[1].ppp[4].ppp.queue packetPopped:count 40
attr interpolationmode none
attr title "packet popped, count"
scalar scenario.client[1].ppp[4].ppp.queue packetPopped:sum(packetBytes) 1633
attr interpolationmode none
attr title "packet popped, sum(packetBytes)"
statistic scenario.client[1].ppp[4].ppp.queue queueingTime:histogram
field count 40
field mean 9.4e-006
field stddev 5.9450820011166e-005
field min 0
field max 0.000376
field sum 0.000376
field sqrsum 1.41376e-007
attr interpolationmode none
attr source queueingTime(packetPopped)
attr title "queueing times, histogram"
attr unit s
bin	-inf	0
bin	0	39
bin	1e-005	0
bin	2e-005	0
bin	3e-005	0
bin	4e-005	0
bin	5e-005	0
bin	6e-005	0
bin	7e-005	0
bin	8e-005	0
bin	9e-005	0
bin	0.0001	0
bin	0.00011	0
bin	0.00012	0
bin	0.00013	0
bin	0.00014	0
bin	0.00015	0
bin	0.00016	0
bin	0.00017	0
bin	0.00018	0
bin	0.00019	0
bin	0.0002	0
bin	0.00021	0
bin	0.00022	0
bin	0.00023	0
bin	0.00024	0
bin	0.00025	0
bin	0.00026	0
bin	0.00027	0
bin	0.00028	0
bin	0.00029	0
bin	0.0003	0
bin	0.00031	0
bin	0.00032	0
bin	0.00033	0
bin	0.00034	0
bin	0.00035	0
bin	0.00036	0
bin	0.00037	1
bin	0.00038	0
bin	0.00039	0
bin	0.0004	0
bin	0.00041	0
bin	0.00042	0
bin	0.00043	0
bin	0.00044	0
bin	0.00045	0
bin	0.00046	0
bin	0.00047	0
scalar scenario.client[1].ppp[4].ppp.queue queueLength:max 1
attr interpolationmode sample-hold
attr source "count(packetPushed) - count(packetPopped) - count(packetRemoved) - count(packetDropped)"
attr title "queue length, max"
scalar scenario.client[1].ppp[4].ppp.queue queueLength:timeavg 2.4462205771215e-008
attr interpolationmode sample-hold
attr source "count(packetPushed) - count(packetPopped) - count(packetRemoved) - count(packetDropped)"
attr title "queue length, timeavg"
scalar scenario.client[1].ppp[4].ppp.queue packetPushed:count 40
attr interpolationmode none
attr title "packet pushed, count"
scalar scenario.client[1].ppp[4].ppp.queue packetPushed:sum(packetBytes) 1633
attr interpolationmode none
attr title "packet pushed, sum(packetBytes)"
scalar scenario.client[1].ppp[4].ppp.queue packetDropQueueOverflow:count 0
attr interpolationmode none
attr source packetDropReasonIsQueueOverflow(packetDropped)
attr title "packet drops: queue overflow, count"
scalar scenario.client[1].ppp[4].ppp.queue packetDropQueueOverflow:sum(packetBytes) 0
attr interpolationmode none
attr source packetDropReasonIsQueueOverflow(packetDropped)
attr title "packet drops: queue overflow, sum(packetBytes)"
scalar scenario.client[1].ppp[4].ppp.queue packetRemoved:count 0
attr interpolationmode none
attr title "packets removed, count"
scalar scenario.client[1].ppp[4].ppp.queue packetRemoved:sum(packetBytes) 0
attr interpolationmode none
attr title "packets removed, sum(packetBytes)"
scalar scenario.client[1].ppp[4].ppp txPk:count 40
attr interpolationmode none
attr source packetSentToLower
attr title "packets transmitted, count"
scalar scenario.client[1].ppp[4].ppp txPk:sum(packetBytes) 1913
attr interpolationmode none
attr source packetSentToLower
attr title "packets transmitted, sum(packetBytes)"
scalar scenario.client[1].ppp[4].ppp rcvdPkFromHl:count 40
attr interpolationmode none
attr source packetReceivedFromUpper
attr title "packets received from higher layer, count"
scalar scenario.client[1].ppp[4].ppp rcvdPkFromHl:sum(packetBytes) 1633
attr interpolationmode none
attr source packetReceivedFromUpper
attr title "packets received from higher layer, sum(packetBytes)"
scalar scenario.client[1].ppp[4].ppp passedUpPk:count 40
attr interpolationmode none
attr source packetSentToUpper
attr title "packets passed to higher layer, count"
scalar scenario.client[1].ppp[4].ppp passedUpPk:sum(packetBytes) 1622
attr interpolationmode none
attr source packetSentToUpper
attr title "packets passed to higher layer, sum(packetBytes)"
scalar scenario.client[1].ppp[4].ppp packetDropIncorrectlyReceived:count 0
attr interpolationmode none
attr source packetDropReasonIsIncorrectlyReceived(packetDropped)
attr title "packet drop: incorrectly received, count"
scalar scenario.client[1].ppp[4].ppp packetDropIncorrectlyReceived:sum(packetBytes) 0
attr interpolationmode none
attr source packetDropReasonIsIncorrectlyReceived(packetDropped)
attr title "packet drop: incorrectly received, sum(packetBytes)"
scalar scenario.client[1].ppp[4].ppp packetDropInterfaceDown:count 0
attr interpolationmode none
attr source packetDropReasonIsInterfaceDown(packetDropped)
attr title "packet drop: interface down, count"
scalar scenario.client[1].ppp[4].ppp packetDropInterfaceDown:sum(packetBytes) 0
attr interpolationmode none
attr source packetDropReasonIsInterfaceDown(packetDropped)
attr title "packet drop: interface down, sum(packetBytes)"
scalar scenario.client[1].ppp[4].ppp rxPkOk:count 40
attr interpolationmode none
attr source rxPkOk
attr title "packets received OK, count"
scalar scenario.client[1].ppp[4].ppp rxPkOk:sum(packetBytes) 1902
attr interpolationmode none
attr source rxPkOk
attr title "packets received OK, sum(packetBytes)"
scalar scenario.client[1].ppp[4].ppp transmissionState:timeavg 9.9557637262555e-007
attr interpolationmode sample-hold
attr source transmissionStateChanged
attr title "tx state, timeavg"
scalar scenario.client[1].ppp[5].ppp.queue packetPopped:count 88
attr interpolationmode none
attr title "packet popped, count"
scalar scenario.client[1].ppp[5].ppp.queue packetPopped:sum(packetBytes) 3577
attr interpolationmode none
attr title "packet popped, sum(packetBytes)"
statistic scenario.client[1].ppp[5].ppp.queue queueingTime:histogram
field count 88
field mean 2.9909090909091e-005
field stddev 0.00010232421274609
field min 0
field max 0.000376
field sum 0.002632
field sqrsum 9.89632e-007
attr interpolationmode none
attr source queueingTime(packetPopped)
attr title "queueing times, histogram"
attr unit s
bin	-inf	0
bin	0	81
bin	1e-005	0
bin	2e-005	0
bin	3e-005	0
bin	4e-005	0
bin	5e-005	0
bin	6e-005	0
bin	7e-005	0
bin	8e-005	0
bin	9e-005	0
bin	0.0001	0
bin	0.00011	0
bin	0.00012	0
bin	0.00013	0
bin	0.00014	0
bin	0.00015	0
bin	0.00016	0
bin	0.00017	0
bin	0.00018	0
bin	0.00019	0
bin	0.0002	0
bin	0.00021	0
bin	0.00022	0
bin	0.00023	0
bin	0.00024	0
bin	0.00025	0
bin	0.00026	0
bin	0.00027	0
bin	0.00028	0
bin	0.00029	0
bin	0.0003	0
bin	0.00031	0
bin	0.00032	0
bin	0.00033	0
bin	0.00034	0
bin	0.00035	0
bin	0.00036	0
bin	0.00037	7
bin	0.00038	0
bin	0.00039	0
bin	0.0004	0
bin	0.00041	0
bin	0.00042	0
bin	0.00043	0
bin	0.00044	0
bin	0.00045	0
bin	0.00046	0
bin	0.00047	0
scalar scenario.client[1].ppp[5].ppp.queue queueLength:max 1
attr interpolationmode sample-hold
attr source "count(packetPushed) - count(packetPopped) - count(packetRemoved) - count(packetDropped)"
attr title "queue length, max"
scalar scenario.client[1].ppp[5].ppp.queue queueLength:timeavg 1.7126662189222e-007
attr interpolationmode sample-hold
attr source "count(packetPushed) - count(packetPopped) - count(packetRemoved) - count(packetDropped)"
attr title "queue length, timeavg"
scalar scenario.client[1].ppp[5].ppp.queue packetPushed:count 88
attr interpolationmode none
attr title "packet pushed, count"
scalar scenario.client[1].ppp[5].ppp.queue packetPushed:sum(packetBytes) 3577
attr interpolationmode none
attr title "packet pushed, sum(packetBytes)"
scalar scenario.client[1].ppp[5].ppp.queue packetDropQueueOverflow:count 0
attr interpolationmode none
attr source packetDropReasonIsQueueOverflow(packetDropped)
attr title "packet drops: queue overflow, count"
scalar scenario.client[1].ppp[5].ppp.queue packetDropQueueOverflow:sum(packetBytes) 0
attr interpolationmode none
attr source packetDropReasonIsQueueOverflow(packetDropped)
attr title "packet drops: queue overflow, sum(packetBytes)"
scalar scenario.client[1].ppp[5].ppp.queue packetRemoved:count 0
attr interpolationmode none
attr title "packets removed, count"
scalar scenario.client[1].ppp[5].ppp.queue packetRemoved:sum(packetBytes) 0
attr interpolationmode none
attr title "packets removed, sum(packetBytes)"
scalar scenario.client[1].ppp[5].ppp txPk:count 88
attr interpolationmode none
attr source packetSentToLower
attr title "packets transmitted, count"
scalar scenario.client[1].ppp[5].ppp txPk:sum(packetBytes) 4193
attr interpolationmode none
attr source packetSentToLower
attr title "packets transmitted, sum(packetBytes)"
scalar scenario.client[1].ppp[5].ppp rcvdPkFromHl:count 88
attr interpolationmode none
attr source packetReceivedFromUpper
attr title "packets received from higher layer, count"
scalar scenario.client[1].ppp[5].ppp rcvdPkFromHl:sum(packetBytes) 3577
attr interpolationmode none
attr source packetReceivedFromUpper
attr title "packets received from higher layer, sum(packetBytes)"
scalar scenario.client[1].ppp[5].ppp passedUpPk:count 88
attr interpolationmode none
attr source packetSentToUpper
attr title "packets passed to higher layer, count"
scalar scenario.client[1].ppp[5].ppp passedUpPk:sum(packetBytes) 3569
attr interpolationmode none
attr source packetSentToUpper
attr title "packets passed to higher layer, sum(packetBytes)"
scalar scenario.client[1].ppp[5].ppp packetDropIncorrectlyReceived:count 0
attr interpolationmode none
attr source packetDropReasonIsIncorrectlyReceived(packetDropped)
attr title "packet drop: incorrectly received, count"
scalar scenario.client[1].ppp[5].ppp packetDropIncorrectlyReceived:sum(packetBytes) 0
attr interpolationmode none
attr source packetDropReasonIsIncorrectlyReceived(packetDropped)
attr title "packet drop: incorrectly received, sum(packetBytes)"
scalar scenario.client[1].ppp[5].ppp packetDropInterfaceDown:count 0
attr interpolationmode none
attr source packetDropReasonIsInterfaceDown(packetDropped)
attr title "packet drop: interface down, count"
scalar scenario.client[1].ppp[5].ppp packetDropInterfaceDown:sum(packetBytes) 0
attr interpolationmode none
attr source packetDropReasonIsInterfaceDown(packetDropped)
attr title "packet drop: interface down, sum(packetBytes)"
scalar scenario.client[1].ppp[5].ppp rxPkOk:count 88
attr interpolationmode none
attr source rxPkOk
attr title "packets received OK, count"
scalar scenario.client[1].ppp[5].ppp rxPkOk:sum(packetBytes) 4185
attr interpolationmode none
attr source rxPkOk
attr title "packets received OK, sum(packetBytes)"
scalar scenario.client[1].ppp[5].ppp transmissionState:timeavg 2.1821493624772e-006
attr interpolationmode sample-hold
attr source transmissionStateChanged
attr title "tx state, timeavg"
scalar scenario.client[1].ipv4.ip packetDropAddressResolutionFailed:count 0
attr interpolationmode none
attr source packetDropReasonIsAddressResolutionFailed(packetDropped)
attr title "packet drop: address resolution failed, count"
scalar scenario.client[1].ipv4.ip packetDropAddressResolutionFailed:sum(packetBytes) 0
attr interpolationmode none
attr source packetDropReasonIsAddressResolutionFailed(packetDropped)
attr title "packet drop: address resolution failed, sum(packetBytes)"
scalar scenario.client[1].ipv4.ip packetDropHopLimitReached:count 0
attr interpolationmode none
attr source packetDropReasonIsHopLimitReached(packetDropped)
attr title "packet drop: hop limit reached, count"
scalar scenario.client[1].ipv4.ip packetDropHopLimitReached:sum(packetBytes) 0
attr interpolationmode none
attr source packetDropReasonIsHopLimitReached(packetDropped)
attr title "packet drop: hop limit reached, sum(packetBytes)"
scalar scenario.client[1].ipv4.ip packetDropForwardingDisabled:count 0
attr interpolationmode none
attr source packetDropReasonIsForwardingDisabled(packetDropped)
attr title "packet drop: forwarding disabled, count"
scalar scenario.client[1].ipv4.ip packetDropForwardingDisabled:sum(packetBytes) 0
attr interpolationmode none
attr source packetDropReasonIsForwardingDisabled(packetDropped)
attr title "packet drop: forwarding disabled, sum(packetBytes)"
scalar scenario.client[1].ipv4.ip packetDropNoInterfaceFound:count 0
attr interpolationmode none
attr source packetDropReasonIsNoInterfaceFound(packetDropped)
attr title "packet drop: no interface found, count"
scalar scenario.client[1].ipv4.ip packetDropNoInterfaceFound:sum(packetBytes) 0
attr interpolationmode none
attr source packetDropReasonIsNoInterfaceFound(packetDropped)
attr title "packet drop: no interface found, sum(packetBytes)"
scalar scenario.client[1].ipv4.ip packetDropNoRouteFound:count 0
attr interpolationmode none
attr source packetDropReasonIsNoRouteFound(packetDropped)
attr title "packet drop: no route found, count"
scalar scenario.client[1].ipv4.ip packetDropNoRouteFound:sum(packetBytes) 0
attr interpolationmode none
attr source packetDropReasonIsNoRouteFound(packetDropped)
attr title "packet drop: no route found, sum(packetBytes)"
scalar scenario.client[1].ipv4.ip packetDropUndefined:count 0
attr interpolationmode none
attr source packetDropReasonIsUndefined(packetDropped)
attr title "packet drop: undefined, count"
scalar scenario.client[1].ipv4.ip packetDropUndefined:sum(packetBytes) 0
attr interpolationmode none
attr source packetDropReasonIsUndefined(packetDropped)
attr title "packet drop: undefined, sum(packetBytes)"
scalar scenario.client[1].ipv4.arp arpReplySent:count 0
attr source arpReplySent
attr title "ARP replies sent, count"
scalar scenario.client[1].ipv4.arp arpReplySent:sum(packetBytes) 0
attr source arpReplySent
attr title "ARP replies sent, sum(packetBytes)"
scalar scenario.client[1].ipv4.arp arpRequestSent:count 0
attr source arpRequestSent
attr title "ARP request sent, count"
scalar scenario.client[1].ipv4.arp arpRequestSent:sum(packetBytes) 0
attr source arpRequestSent
attr title "ARP request sent, sum(packetBytes)"
scalar scenario.client[1].ipv4.arp arpResolutionFailed:count 0
attr title "ARP failed resolutions, count"
scalar scenario.client[1].ipv4.arp arpResolutionCompleted:count 0
attr title "ARP completed resolutions, count"
scalar scenario.client[1].ipv4.arp arpResolutionInitiated:count 0
attr title "ARP initiated resolutions, count"
scalar scenario.client[1].udp packetReceived:count 0
attr interpolationmode none
attr source packetReceived
attr title "packets received, count"
scalar scenario.client[1].udp packetReceived:sum(packetBytes) 0
attr interpolationmode none
attr source packetReceived
attr title "packets received, sum(packetBytes)"
scalar scenario.client[1].udp packetSent:count 0
attr interpolationmode none
attr source packetSent
attr title "packets sent, count"
scalar scenario.client[1].udp packetSent:sum(packetBytes) 0
attr interpolationmode none
attr source packetSent
attr title "packets sent, sum(packetBytes)"
scalar scenario.client[1].udp passedUpPk:count 0
attr interpolationmode none
attr source packetSentToUpper
attr title "packets passed up, count"
scalar scenario.client[1].udp droppedPkWrongPort:count 0
attr interpolationmode none
attr source packetDropReasonIsNoPortFound(packetDropped)
attr title "packets dropped (wrong port), count"
scalar scenario.client[1].udp droppedPkBadChecksum:count 0
attr interpolationmode none
attr source packetDropReasonIsIncorrectlyReceived(packetDropped)
attr title "packets dropped (checksum error), count"
scalar scenario.client[2].lo[0].lo rcvdPkFromHl:count 0
attr interpolationmode none
attr source packetReceivedFromUpper
attr title "packets received from higher layer, count"
scalar scenario.client[2].lo[0].lo rcvdPkFromHl:sum(packetBytes) 0
attr interpolationmode none
attr source packetReceivedFromUpper
attr title "packets received from higher layer, sum(packetBytes)"
scalar scenario.client[2].lo[0].lo passedUpPk:count 0
attr interpolationmode none
attr source packetSentToUpper
attr title "packets passed to higher layer, count"
scalar scenario.client[2].lo[0].lo passedUpPk:sum(packetBytes) 0
attr interpolationmode none
attr source packetSentToUpper
attr title "packets passed to higher layer, sum(packetBytes)"
scalar scenario.client[2].ppp[0].ppp.queue packetPopped:count 129
attr interpolationmode none
attr title "packet popped, count"
scalar scenario.client[2].ppp[0].ppp.queue packetPopped:sum(packetBytes) 5229
attr interpolationmode none
attr title "packet popped, sum(packetBytes)"
statistic scenario.client[2].ppp[0].ppp.queue queueingTime:histogram
field count 129
field mean 6.1209302325581e-005
field stddev 0.0001393508204597
field min 0
field max 0.000376
field sum 0.007896
field sqrsum 2.968896e-006
attr interpolationmode none
attr source queueingTime(packetPopped)
attr title "queueing times, histogram"
attr unit s
bin	-inf	0
bin	0	108
bin	1e-005	0
bin	2e-005	0
bin	3e-005	0
bin	4e-005	0
bin	5e-005	0
bin	6e-005	0
bin	7e-005	0
bin	8e-005	0
bin	9e-005	0
bin	0.0001	0
bin	0.00011	0
bin	0.00012	0
bin	0.00013	0
bin	0.00014	0
bin	0.00015	0
bin	0.00016	0
bin	0.00017	0
bin	0.00018	0
bin	0.00019	0
bin	0.0002	0
bin	0.00021	0
bin	0.00022	0
bin	0.00023	0
bin	0.00024	0
bin	0.00025	0
bin	0.00026	0
bin	0.00027	0
bin	0.00028	0
bin	0.00029	0
bin	0.0003	0
bin	0.00031	0
bin	0.00032	0
bin	0.00033	0
bin	0.00034	0
bin	0.00035	0
bin	0.00036	0
bin	0.00037	21
bin	0.00038	0
bin	0.00039	0
bin	0.0004	0
bin	0.00041	0
bin	0.00042	0
bin	0.00043	0
bin	0.00044	0
bin	0.00045	0
bin	0.00046	0
bin	0.00047	0
scalar scenario.client[2].ppp[0].ppp.queue queueLength:max 1
attr interpolationmode sample-hold
attr source "count(packetPushed) - count(packetPopped) - count(packetRemoved) - count(packetDropped)"
attr title "queue length, max"
scalar scenario.client[2].ppp[0].ppp.queue queueLength:timeavg 5.1368822180993e-007
attr interpolationmode sample-hold
attr source "count(packetPushed) - count(packetPopped) - count(packetRemoved) - count(packetDropped)"
attr title "queue length, timeavg"
scalar scenario.client[2].ppp[0].ppp.queue packetPushed:count 129
attr interpolationmode none
attr title "packet pushed, count"
scalar scenario.client[2].ppp[0].ppp.queue packetPushed:sum(packetBytes) 5229
attr interpolationmode none
attr title "packet pushed, sum(packetBytes)"
scalar scenario.client[2].ppp[0].ppp.queue packetDropQueueOverflow:count 0
attr interpolationmode none
attr source packetDropReasonIsQueueOverflow(packetDropped)
attr title "packet drops: queue overflow, count"
scalar scenario.client[2].ppp[0].ppp.queue packetDropQueueOverflow:sum(packetBytes) 0
attr interpolationmode none
attr source packetDropReasonIsQueueOverflow(packetDropped)
attr title "packet drops: queue overflow, sum(packetBytes)"
scalar scenario.client[2].ppp[0].ppp.queue packetRemoved:count 0
attr interpolationmode none
attr title "packets removed, count"
scalar scenario.client[2].ppp[0].ppp.queue packetRemoved:sum(packetBytes) 0
attr interpolationmode none
attr title "packets removed, sum(packetBytes)"
scalar scenario.client[2].ppp[0].ppp txPk:count 129
attr interpolationmode none
attr source packetSentToLower
attr title "packets transmitted, count"
scalar scenario.client[2].ppp[0].ppp txPk:sum(packetBytes) 6132
attr interpolationmode none
attr source packetSentToLower
attr title "packets transmitted, sum(packetBytes)"
scalar scenario.client[2].ppp[0].ppp rcvdPkFromHl:count 129
attr interpolationmode none
attr source packetReceivedFromUpper
attr title "packets received from higher layer, count"
scalar scenario.client[2].ppp[0].ppp rcvdPkFromHl:sum(packetBytes) 5229
attr interpolationmode none
attr source packetReceivedFromUpper
attr title "packets received from higher layer, sum(packetBytes)"
scalar scenario.client[2].ppp[0].ppp passedUpPk:count 129
attr interpolationmode none
attr source packetSentToUpper
attr title "packets passed to higher layer, count"
scalar scenario.client[2].ppp[0].ppp passedUpPk:sum(packetBytes) 5238
attr interpolationmode none
attr source packetSentToUpper
attr title "packets passed to higher layer, sum(packetBytes)"
scalar scenario.client[2].ppp[0].ppp packetDropIncorrectlyReceived:count 0
attr interpolationmode none
attr source packetDropReasonIsIncorrectlyReceived(packetDropped)
attr title "packet drop: incorrectly received, count"
scalar scenario.client[2].ppp[0].ppp packetDropIncorrectlyReceived:sum(packetBytes) 0
attr interpolationmode none
attr source packetDropReasonIsIncorrectlyReceived(packetDropped)
attr title "packet drop: incorrectly received, sum(packetBytes)"
scalar scenario.client[2].ppp[0].ppp packetDropInterfaceDown:count 0
attr interpolationmode none
attr source packetDropReasonIsInterfaceDown(packetDropped)
attr title "packet drop: interface down, count"
scalar scenario.client[2].ppp[0].ppp packetDropInterfaceDown:sum(packetBytes) 0
attr interpolationmode none
attr source packetDropReasonIsInterfaceDown(packetDropped)
[...]
field count 75
field mean 4.0106666666667e-005
field stddev 0.00011684866319342
field min 0
field max 0.000376
field sum 0.003008
field sqrsum 1.131008e-006
attr interpolationmode none
attr source queueingTime(packetPopped)
attr title "queueing times, histogram"
attr unit s
bin	-inf	0
bin	0	67
bin	1e-005	0
bin	2e-005	0
bin	3e-005	0
bin	4e-005	0
bin	5e-005	0
bin	6e-005	0
bin	7e-005	0
bin	8e-005	0
bin	9e-005	0
bin	0.0001	0
bin	0.00011	0
bin	0.00012	0
bin	0.00013	0
bin	0.00014	0
bin	0.00015	0
bin	0.00016	0
bin	0.00017	0
bin	0.00018	0
bin	0.00019	0
bin	0.0002	0
bin	0.00021	0
bin	0.00022	0
bin	0.00023	0
bin	0.00024	0
bin	0.00025	0
bin	0.00026	0
bin	0.00027	0
bin	0.00028	0
bin	0.00029	0
bin	0.0003	0
bin	0.00031	0
bin	0.00032	0
bin	0.00033	0
bin	0.00034	0
bin	0.00035	0
bin	0.00036	0
bin	0.00037	8
bin	0.00038	0
bin	0.00039	0
bin	0.0004	0
bin	0.00041	0
bin	0.00042	0
bin	0.00043	0
bin	0.00044	0
bin	0.00045	0
bin	0.00046	0
bin	0.00047	0
scalar scenario.client[6].ppp[3].ppp.queue queueLength:max 1
attr interpolationmode sample-hold
attr source "count(packetPushed) - count(packetPopped) - count(packetRemoved) - count(packetDropped)"
attr title "queue length, max"
scalar scenario.client[6].ppp[3].ppp.queue queueLength:timeavg 1.9574542087716e-007
attr interpolationmode sample-hold
attr source "count(packetPushed) - count(packetPopped) - count(packetRemoved) - count(packetDropped)"
attr title "queue length, timeavg"
scalar scenario.client[6].ppp[3].ppp.queue packetPushed:count 75
attr interpolationmode none
attr title "packet pushed, count"
scalar scenario.client[6].ppp[3].ppp.queue packetPushed:sum(packetBytes) 3050
attr interpolationmode none
attr title "packet pushed, sum(packetBytes)"
scalar scenario.client[6].ppp[3].ppp.queue packetDropQueueOverflow:count 0
attr interpolationmode none
attr source packetDropReasonIsQueueOverflow(packetDropped)
attr title "packet drops: queue overflow, count"
scalar scenario.client[6].ppp[3].ppp.queue packetDropQueueOverflow:sum(packetBytes) 0
attr interpolationmode none
attr source packetDropReasonIsQueueOverflow(packetDropped)
attr title "packet drops: queue overflow, sum(packetBytes)"
scalar scenario.client[6].ppp[3].ppp.queue packetRemoved:count 0
attr interpolationmode none
attr title "packets removed, count"
scalar scenario.client[6].ppp[3].ppp.queue packetRemoved:sum(packetBytes) 0
attr interpolationmode none
attr title "packets removed, sum(packetBytes)"
scalar scenario.client[6].ppp[3].ppp txPk:count 75
attr interpolationmode none
attr source packetSentToLower
attr title "packets transmitted, count"
scalar scenario.client[6].ppp[3].ppp txPk:sum(packetBytes) 3575
attr interpolationmode none
attr source packetSentToLower
attr title "packets transmitted, sum(packetBytes)"
scalar scenario.client[6].ppp[3].ppp rcvdPkFromHl:count 75
attr interpolationmode none
attr source packetReceivedFromUpper
attr title "packets received from higher layer, count"
scalar scenario.client[6].ppp[3].ppp rcvdPkFromHl:sum(packetBytes) 3050
attr interpolationmode none
attr source packetReceivedFromUpper
attr title "packets received from higher layer, sum(packetBytes)"
scalar scenario.client[6].ppp[3].ppp passedUpPk:count 75
attr interpolationmode none
attr source packetSentToUpper
attr title "packets passed to higher layer, count"
scalar scenario.client[6].ppp[3].ppp passedUpPk:sum(packetBytes) 3043
attr interpolationmode none
attr source packetSentToUpper
attr title "packets passed to higher layer, sum(packetBytes)"
scalar scenario.client[6].ppp[3].ppp packetDropIncorrectlyReceived:count 0
attr interpolationmode none
attr source packetDropReasonIsIncorrectlyReceived(packetDropped)
attr title "packet drop: incorrectly received, count"
scalar scenario.client[6].ppp[3].ppp packetDropIncorrectlyReceived:sum(packetBytes) 0
attr interpolationmode none
attr source packetDropReasonIsIncorrectlyReceived(packetDropped)
attr title "packet drop: incorrectly received, sum(packetBytes)"
scalar scenario.client[6].ppp[3].ppp packetDropInterfaceDown:count 0
attr interpolationmode none
attr source packetDropReasonIsInterfaceDown(packetDropped)
attr title "packet drop: interface down, count"
scalar scenario.client[6].ppp[3].ppp packetDropInterfaceDown:sum(packetBytes) 0
attr interpolationmode none
attr source packetDropReasonIsInterfaceDown(packetDropped)
attr title "packet drop: interface down, sum(packetBytes)"
scalar scenario.client[6].ppp[3].ppp rxPkOk:count 75
attr interpolationmode none
attr source rxPkOk
attr title "packets received OK, count"
scalar scenario.client[6].ppp[3].ppp rxPkOk:sum(packetBytes) 3568
attr interpolationmode none
attr source rxPkOk
attr title "packets received OK, sum(packetBytes)"
scalar scenario.client[6].ppp[3].ppp transmissionState:timeavg 1.8605256310174e-006
attr interpolationmode sample-hold
attr source transmissionStateChanged
attr title "tx state, timeavg"
scalar scenario.client[6].ppp[4].ppp.queue packetPopped:count 76
attr interpolationmode none
attr title "packet popped, count"
scalar scenario.client[6].ppp[4].ppp.queue packetPopped:sum(packetBytes) 3089
attr interpolationmode none
attr title "packet popped, sum(packetBytes)"
statistic scenario.client[6].ppp[4].ppp.queue queueingTime:histogram
field count 76
field mean 3.9578947368421e-005
field stddev 0.00011615819823647
field min 0
field max 0.000376
field sum 0.003008
field sqrsum 1.131008e-006
attr interpolationmode none
attr source queueingTime(packetPopped)
attr title "queueing times, histogram"
attr unit s
bin	-inf	0
bin	0	68
bin	1e-005	0
bin	2e-005	0
bin	3e-005	0
bin	4e-005	0
bin	5e-005	0
bin	6e-005	0
bin	7e-005	0
bin	8e-005	0
bin	9e-005	0
bin	0.0001	0
bin	0.00011	0
bin	0.00012	0
bin	0.00013	0
bin	0.00014	0
bin	0.00015	0
bin	0.00016	0
bin	0.00017	0
bin	0.00018	0
bin	0.00019	0
bin	0.0002	0
bin	0.00021	0
bin	0.00022	0
bin	0.00023	0
bin	0.00024	0
bin	0.00025	0
bin	0.00026	0
bin	0.00027	0
bin	0.00028	0
bin	0.00029	0
bin	0.0003	0
bin	0.00031	0
bin	0.00032	0
bin	0.00033	0
bin	0.00034	0
bin	0.00035	0
bin	0.00036	0
bin	0.00037	8
bin	0.00038	0
bin	0.00039	0
bin	0.0004	0
bin	0.00041	0
bin	0.00042	0
bin	0.00043	0
bin	0.00044	0
bin	0.00045	0
bin	0.00046	0
bin	0.00047	0
scalar scenario.client[6].ppp[4].ppp.queue queueLength:max 1
attr interpolationmode sample-hold
attr source "count(packetPushed) - count(packetPopped) - count(packetRemoved) - count(packetDropped)"
attr title "queue length, max"
scalar scenario.client[6].ppp[4].ppp.queue queueLength:timeavg 1.957501415178e-007
attr interpolationmode sample-hold
attr source "count(packetPushed) - count(packetPopped) - count(packetRemoved) - count(packetDropped)"
attr title "queue length, timeavg"
scalar scenario.client[6].ppp[4].ppp.queue packetPushed:count 76
attr interpolationmode none
attr title "packet pushed, count"
scalar scenario.client[6].ppp[4].ppp.queue packetPushed:sum(packetBytes) 3089
attr interpolationmode none
attr title "packet pushed, sum(packetBytes)"
scalar scenario.client[6].ppp[4].ppp.queue packetDropQueueOverflow:count 0
attr interpolationmode none
attr source packetDropReasonIsQueueOverflow(packetDropped)
attr title "packet drops: queue overflow, count"
scalar scenario.client[6].ppp[4].ppp.queue packetDropQueueOverflow:sum(packetBytes) 0
attr interpolationmode none
attr source packetDropReasonIsQueueOverflow(packetDropped)
attr title "packet drops: queue overflow, sum(packetBytes)"
scalar scenario.client[6].ppp[4].ppp.queue packetRemoved:count 0
attr interpolationmode none
attr title "packets removed, count"
scalar scenario.client[6].ppp[4].ppp.queue packetRemoved:sum(packetBytes) 0
attr interpolationmode none
attr title "packets removed, sum(packetBytes)"
scalar scenario.client[6].ppp[4].ppp txPk:count 76
attr interpolationmode none
attr source packetSentToLower
attr title "packets transmitted, count"
scalar scenario.client[6].ppp[4].ppp txPk:sum(packetBytes) 3621
attr interpolationmode none
attr source packetSentToLower
attr title "packets transmitted, sum(packetBytes)"
scalar scenario.client[6].ppp[4].ppp rcvdPkFromHl:count 76
attr interpolationmode none
attr source packetReceivedFromUpper
attr title "packets received from higher layer, count"
scalar scenario.client[6].ppp[4].ppp rcvdPkFromHl:sum(packetBytes) 3089
attr interpolationmode none
attr source packetReceivedFromUpper
attr title "packets received from higher layer, sum(packetBytes)"
scalar scenario.client[6].ppp[4].ppp passedUpPk:count 76
attr interpolationmode none
attr source packetSentToUpper
attr title "packets passed to higher layer, count"
scalar scenario.client[6].ppp[4].ppp passedUpPk:sum(packetBytes) 3085
attr interpolationmode none
attr source packetSentToUpper
attr title "packets passed to higher layer, sum(packetBytes)"
scalar scenario.client[6].ppp[4].ppp packetDropIncorrectlyReceived:count 0
attr interpolationmode none
attr source packetDropReasonIsIncorrectlyReceived(packetDropped)
attr title "packet drop: incorrectly received, count"
scalar scenario.client[6].ppp[4].ppp packetDropIncorrectlyReceived:sum(packetBytes) 0
attr interpolationmode none
attr source packetDropReasonIsIncorrectlyReceived(packetDropped)
attr title "packet drop: incorrectly received, sum(packetBytes)"
scalar scenario.client[6].ppp[4].ppp packetDropInterfaceDown:count 0
attr interpolationmode none
attr source packetDropReasonIsInterfaceDown(packetDropped)
attr title "packet drop: interface down, count"
scalar scenario.client[6].ppp[4].ppp packetDropInterfaceDown:sum(packetBytes) 0
attr interpolationmode none
attr source packetDropReasonIsInterfaceDown(packetDropped)
attr title "packet drop: interface down, sum(packetBytes)"
scalar scenario.client[6].ppp[4].ppp rxPkOk:count 76
attr interpolationmode none
attr source rxPkOk
attr title "packets received OK, count"
scalar scenario.client[6].ppp[4].ppp rxPkOk:sum(packetBytes) 3617
attr interpolationmode none
attr source rxPkOk
attr title "packets received OK, sum(packetBytes)"
scalar scenario.client[6].ppp[4].ppp transmissionState:timeavg 1.8844652615144e-006
attr interpolationmode sample-hold
attr source transmissionStateChanged
attr title "tx state, timeavg"
scalar scenario.client[6].ppp[5].ppp.queue packetPopped:count 35
attr interpolationmode none
attr title "packet popped, count"
scalar scenario.client[6].ppp[5].ppp.queue packetPopped:sum(packetBytes) 1429
attr interpolationmode none
attr title "packet popped, sum(packetBytes)"
statistic scenario.client[6].ppp[5].ppp.queue queueingTime:histogram
field count 35
field mean 1.0742857142857e-005
field stddev 6.3555599955584e-005
field min 0
field max 0.000376
field sum 0.000376
field sqrsum 1.41376e-007
attr interpolationmode none
attr source queueingTime(packetPopped)
attr title "queueing times, histogram"
attr unit s
bin	-inf	0
bin	0	34
bin	1e-005	0
bin	2e-005	0
bin	3e-005	0
bin	4e-005	0
bin	5e-005	0
bin	6e-005	0
bin	7e-005	0
bin	8e-005	0
bin	9e-005	0
bin	0.0001	0
bin	0.00011	0
bin	0.00012	0
bin	0.00013	0
bin	0.00014	0
bin	0.00015	0
bin	0.00016	0
bin	0.00017	0
bin	0.00018	0
bin	0.00019	0
bin	0.0002	0
bin	0.00021	0
bin	0.00022	0
bin	0.00023	0
bin	0.00024	0
bin	0.00025	0
bin	0.00026	0
bin	0.00027	0
bin	0.00028	0
bin	0.00029	0
bin	0.0003	0
bin	0.00031	0
bin	0.00032	0
bin	0.00033	0
bin	0.00034	0
bin	0.00035	0
bin	0.00036	0
bin	0.00037	1
bin	0.00038	0
bin	0.00039	0
bin	0.0004	0
bin	0.00041	0
bin	0.00042	0
bin	0.00043	0
bin	0.00044	0
bin	0.00045	0
bin	0.00046	0
bin	0.00047	0
scalar scenario.client[6].ppp[5].ppp.queue queueLength:max 1
attr interpolationmode sample-hold
attr source "count(packetPushed) - count(packetPopped) - count(packetRemoved) - count(packetDropped)"
attr title "queue length, max"
scalar scenario.client[6].ppp[5].ppp.queue queueLength:timeavg 2.4464683084088e-008
attr interpolationmode sample-hold
attr source "count(packetPushed) - count(packetPopped) - count(packetRemoved) - count(packetDropped)"
attr title "queue length, timeavg"
scalar scenario.client[6].ppp[5].ppp.queue packetPushed:count 35
attr interpolationmode none
attr title "packet pushed, count"
scalar scenario.client[6].ppp[5].ppp.queue packetPushed:sum(packetBytes) 1429
attr interpolationmode none
attr title "packet pushed, sum(packetBytes)"
scalar scenario.client[6].ppp[5].ppp.queue packetDropQueueOverflow:count 0
attr interpolationmode none
attr source packetDropReasonIsQueueOverflow(packetDropped)
attr title "packet drops: queue overflow, count"
scalar scenario.client[6].ppp[5].ppp.queue packetDropQueueOverflow:sum(packetBytes) 0
attr interpolationmode none
attr source packetDropReasonIsQueueOverflow(packetDropped)
attr title "packet drops: queue overflow, sum(packetBytes)"
scalar scenario.client[6].ppp[5].ppp.queue packetRemoved:count 0
attr interpolationmode none
attr title "packets removed, count"
scalar scenario.client[6].ppp[5].ppp.queue packetRemoved:sum(packetBytes) 0
attr interpolationmode none
attr title "packets removed, sum(packetBytes)"
scalar scenario.client[6].ppp[5].ppp txPk:count 35
attr interpolationmode none
attr source packetSentToLower
attr title "packets transmitted, count"
scalar scenario.client[6].ppp[5].ppp txPk:sum(packetBytes) 1674
attr interpolationmode none
attr source packetSentToLower
attr title "packets transmitted, sum(packetBytes)"
scalar scenario.client[6].ppp[5].ppp rcvdPkFromHl:count 35
attr interpolationmode none
attr source packetReceivedFromUpper
attr title "packets received from higher layer, count"
scalar scenario.client[6].ppp[5].ppp rcvdPkFromHl:sum(packetBytes) 1429
attr interpolationmode none
attr source packetReceivedFromUpper
attr title "packets received from higher layer, sum(packetBytes)"
scalar scenario.client[6].ppp[5].ppp passedUpPk:count 35
attr interpolationmode none
attr source packetSentToUpper
attr title "packets passed to higher layer, count"
scalar scenario.client[6].ppp[5].ppp passedUpPk:sum(packetBytes) 1421
attr interpolationmode none
attr source packetSentToUpper
attr title "packets passed to higher layer, sum(packetBytes)"
scalar scenario.client[6].ppp[5].ppp packetDropIncorrectlyReceived:count 0
attr interpolationmode none
attr source packetDropReasonIsIncorrectlyReceived(packetDropped)
attr title "packet drop: incorrectly received, count"
scalar scenario.client[6].ppp[5].ppp packetDropIncorrectlyReceived:sum(packetBytes) 0
attr interpolationmode none
attr source packetDropReasonIsIncorrectlyReceived(packetDropped)
attr title "packet drop: incorrectly received, sum(packetBytes)"
scalar scenario.client[6].ppp[5].ppp packetDropInterfaceDown:count 0
attr interpolationmode none
attr source packetDropReasonIsInterfaceDown(packetDropped)
attr title "packet drop: interface down, count"
scalar scenario.client[6].ppp[5].ppp packetDropInterfaceDown:sum(packetBytes) 0
attr interpolationmode none
attr source packetDropReasonIsInterfaceDown(packetDropped)
attr title "packet drop: interface down, sum(packetBytes)"
scalar scenario.client[6].ppp[5].ppp rxPkOk:count 35
attr interpolationmode none
attr source rxPkOk
attr title "packets received OK, count"
scalar scenario.client[6].ppp[5].ppp rxPkOk:sum(packetBytes) 1666
attr interpolationmode none
attr source rxPkOk
attr title "packets received OK, sum(packetBytes)"
scalar scenario.client[6].ppp[5].ppp transmissionState:timeavg 8.711943793911e-007
attr interpolationmode sample-hold
attr source transmissionStateChanged
attr title "tx state, timeavg"
scalar scenario.client[6].ipv4.ip packetDropAddressResolutionFailed:count 0
attr interpolationmode none
attr source packetDropReasonIsAddressResolutionFailed(packetDropped)
attr title "packet drop: address resolution failed, count"
scalar scenario.client[6].ipv4.ip packetDropAddressResolutionFailed:sum(packetBytes) 0
attr interpolationmode none
attr source packetDropReasonIsAddressResolutionFailed(packetDropped)
attr title "packet drop: address resolution failed, sum(packetBytes)"
scalar scenario.client[6].ipv4.ip packetDropHopLimitReached:count 0
attr interpolationmode none
attr source packetDropReasonIsHopLimitReached(packetDropped)
attr title "packet drop: hop limit reached, count"
scalar scenario.client[6].ipv4.ip packetDropHopLimitReached:sum(packetBytes) 0
attr interpolationmode none
attr source packetDropReasonIsHopLimitReached(packetDropped)
attr title "packet drop: hop limit reached, sum(packetBytes)"
scalar scenario.client[6].ipv4.ip packetDropForwardingDisabled:count 0
attr interpolationmode none
attr source packetDropReasonIsForwardingDisabled(packetDropped)
attr title "packet drop: forwarding disabled, count"
scalar scenario.client[6].ipv4.ip packetDropForwardingDisabled:sum(packetBytes) 0
attr interpolationmode none
attr source packetDropReasonIsForwardingDisabled(packetDropped)
attr title "packet drop: forwarding disabled, sum(packetBytes)"
scalar scenario.client[6].ipv4.ip packetDropNoInterfaceFound:count 0
attr interpolationmode none
attr source packetDropReasonIsNoInterfaceFound(packetDropped)
attr title "packet drop: no interface found, count"
scalar scenario.client[6].ipv4.ip packetDropNoInterfaceFound:sum(packetBytes) 0
attr interpolationmode none
attr source packetDropReasonIsNoInterfaceFound(packetDropped)
attr title "packet drop: no interface found, sum(packetBytes)"
scalar scenario.client[6].ipv4.ip packetDropNoRouteFound:count 0
attr interpolationmode none
attr source packetDropReasonIsNoRouteFound(packetDropped)
attr title "packet drop: no route found, count"
scalar scenario.client[6].ipv4.ip packetDropNoRouteFound:sum(packetBytes) 0
attr interpolationmode none
attr source packetDropReasonIsNoRouteFound(packetDropped)
attr title "packet drop: no route found, sum(packetBytes)"
scalar scenario.client[6].ipv4.ip packetDropUndefined:count 0
attr interpolationmode none
attr source packetDropReasonIsUndefined(packetDropped)
attr title "packet drop: undefined, count"
scalar scenario.client[6].ipv4.ip packetDropUndefined:sum(packetBytes) 0
attr interpolationmode none
attr source packetDropReasonIsUndefined(packetDropped)
attr title "packet drop: undefined, sum(packetBytes)"
scalar scenario.client[6].ipv4.arp arpReplySent:count 0
attr source arpReplySent
attr title "ARP replies sent, count"
scalar scenario.client[6].ipv4.arp arpReplySent:sum(packetBytes) 0
attr source arpReplySent
attr title "ARP replies sent, sum(packetBytes)"
scalar scenario.client[6].ipv4.arp arpRequestSent:count 0
attr source arpRequestSent
attr title "ARP request sent, count"
scalar scenario.client[6].ipv4.arp arpRequestSent:sum(packetBytes) 0
attr source arpRequestSent
attr title "ARP request sent, sum(packetBytes)"
scalar scenario.client[6].ipv4.arp arpResolutionFailed:count 0
attr title "ARP failed resolutions, count"
scalar scenario.client[6].ipv4.arp arpResolutionCompleted:count 0
attr title "ARP completed resolutions, count"
scalar scenario.client[6].ipv4.arp arpResolutionInitiated:count 0
attr title "ARP initiated resolutions, count"
scalar scenario.client[6].udp packetReceived:count 0
attr interpolationmode none
attr source packetReceived
attr title "packets received, count"
scalar scenario.client[6].udp packetReceived:sum(packetBytes) 0
attr interpolationmode none
attr source packetReceived
attr title "packets received, sum(packetBytes)"
scalar scenario.client[6].udp packetSent:count 0
attr interpolationmode none
attr source packetSent
attr title "packets sent, count"
scalar scenario.client[6].udp packetSent:sum(packetBytes) 0
attr interpolationmode none
attr source packetSent
attr title "packets sent, sum(packetBytes)"
scalar scenario.client[6].udp passedUpPk:count 0
attr interpolationmode none
attr source packetSentToUpper
attr title "packets passed up, count"
scalar scenario.client[6].udp droppedPkWrongPort:count 0
attr interpolationmode none
attr source packetDropReasonIsNoPortFound(packetDropped)
attr title "packets dropped (wrong port), count"
scalar scenario.client[6].udp droppedPkBadChecksum:count 0
attr interpolationmode none
attr source packetDropReasonIsIncorrectlyReceived(packetDropped)
attr title "packets dropped (checksum error), count"

