version 2
run BROADCAST4-0-20220106-12:07:13-2896
attr configname BROADCAST4
attr datetime 20220106-12:07:13
attr experiment BROADCAST4
attr inifile omnetpp.ini
attr iterationvars ""
attr iterationvarsf ""
attr measurement ""
attr network scenario
attr processid 2896
attr repetition 0
attr replication #0
attr resultdir results
attr runnumber 0
attr seedset 0
param **.client0.app[0].broadcast 1.0
param **.client1.app[0].broadcast 1.4
param **.client2.app[0].broadcast 1.8
param **.client3.app[0].join 1.3
param **.client4.app[0].join 1.6
param **.ppp[*].ppp.queue.typename "\"DropTailQueue\""
param **.tcp.typename "\"Tcp\""
param **.tcp.nagleEnabled false
param **.cli*.app[*].nPar 5
param **.cli*.app[*].fPar 0
param **.numApps 1
param **.client0.app[*].typename "\"Node\""
param **.client0.app[0].localPort 1000
param **.client0.app[0].localPortL 1234
param **.client0.app[0].connectAddress "\"\""
param **.client0.app[0].connectPort 1234
param **.client1.app[*].typename "\"Node\""
param **.client1.app[0].localPort 1001
param **.client1.app[0].localPortL 1234
param **.client1.app[0].connectAddress "\"\""
param **.client1.app[0].connectPort 1234
param **.client2.app[*].typename "\"Node\""
param **.client2.app[0].localPort 1002
param **.client2.app[0].localPortL 1234
param **.client2.app[0].connectAddress "\"\""
param **.client2.app[0].connectPort 1234
param **.client3.app[*].typename "\"Node\""
param **.client3.app[0].localPort 1003
param **.client3.app[0].localPortL 1234
param **.client3.app[0].connectAddress "\"\""
param **.client3.app[0].connectPort 1234
param **.client4.app[*].typename "\"Node\""
param **.client4.app[0].localPort 1004
param **.client4.app[0].localPortL 1234
param **.client4.app[0].connectAddress "\"\""
param **.client4.app[0].connectPort 1234
param *.configurator.dumpAddresses true
param *.configurator.dumpTopology true
param *.configurator.dumpLinks true
param *.configurator.dumpRoutes true

vector 0 scenario.client0.ppp[0].ppp transmissionState:vector ETV
attr interpolationmode sample-hold
attr source transmissionStateChanged
attr title "tx state, vector"
vector 1 scenario.client0.ppp[1].ppp transmissionState:vector ETV
attr interpolationmode sample-hold
attr source transmissionStateChanged
attr title "tx state, vector"
vector 2 scenario.client0.ppp[2].ppp transmissionState:vector ETV
attr interpolationmode sample-hold
attr source transmissionStateChanged
attr title "tx state, vector"
vector 3 scenario.client0.ppp[3].ppp transmissionState:vector ETV
attr interpolationmode sample-hold
attr source transmissionStateChanged
attr title "tx state, vector"
vector 4 scenario.client1.ppp[0].ppp transmissionState:vector ETV
attr interpolationmode sample-hold
attr source transmissionStateChanged
attr title "tx state, vector"
vector 5 scenario.client1.ppp[1].ppp transmissionState:vector ETV
attr interpolationmode sample-hold
attr source transmissionStateChanged
attr title "tx state, vector"
vector 6 scenario.client1.ppp[2].ppp transmissionState:vector ETV
attr interpolationmode sample-hold
attr source transmissionStateChanged
attr title "tx state, vector"
vector 7 scenario.client1.ppp[3].ppp transmissionState:vector ETV
attr interpolationmode sample-hold
attr source transmissionStateChanged
attr title "tx state, vector"
vector 8 scenario.client2.ppp[0].ppp transmissionState:vector ETV
attr interpolationmode sample-hold
attr source transmissionStateChanged
attr title "tx state, vector"
vector 9 scenario.client2.ppp[1].ppp transmissionState:vector ETV
attr interpolationmode sample-hold
attr source transmissionStateChanged
attr title "tx state, vector"
vector 10 scenario.client2.ppp[2].ppp transmissionState:vector ETV
attr interpolationmode sample-hold
attr source transmissionStateChanged
attr title "tx state, vector"
vector 11 scenario.client2.ppp[3].ppp transmissionState:vector ETV
attr interpolationmode sample-hold
attr source transmissionStateChanged
attr title "tx state, vector"
vector 12 scenario.client3.ppp[0].ppp transmissionState:vector ETV
attr interpolationmode sample-hold
attr source transmissionStateChanged
attr title "tx state, vector"
vector 13 scenario.client3.ppp[1].ppp transmissionState:vector ETV
attr interpolationmode sample-hold
attr source transmissionStateChanged
attr title "tx state, vector"
vector 14 scenario.client3.ppp[2].ppp transmissionState:vector ETV
attr interpolationmode sample-hold
attr source transmissionStateChanged
attr title "tx state, vector"
vector 15 scenario.client3.ppp[3].ppp transmissionState:vector ETV
attr interpolationmode sample-hold
attr source transmissionStateChanged
attr title "tx state, vector"
vector 16 scenario.client4.ppp[0].ppp transmissionState:vector ETV
attr interpolationmode sample-hold
attr source transmissionStateChanged
attr title "tx state, vector"
vector 17 scenario.client4.ppp[1].ppp transmissionState:vector ETV
attr interpolationmode sample-hold
attr source transmissionStateChanged
attr title "tx state, vector"
vector 18 scenario.client4.ppp[2].ppp transmissionState:vector ETV
attr interpolationmode sample-hold
attr source transmissionStateChanged
attr title "tx state, vector"
vector 19 scenario.client4.ppp[3].ppp transmissionState:vector ETV
attr interpolationmode sample-hold
attr source transmissionStateChanged
attr title "tx state, vector"
vector 20 scenario.client3.tcp.conn-25 tcpRcvQueueBytes:vector ETV
attr interpolationmode sample-hold
vector 21 scenario.client3.tcp.conn-25 rcvAdv:vector ETV
attr interpolationmode sample-hold
vector 22 scenario.client3.tcp.conn-25 rcvWnd:vector ETV
attr interpolationmode sample-hold
vector 23 scenario.client3.tcp.conn-25 sndAck:vector ETV
attr interpolationmode sample-hold
vector 24 scenario.client3.ppp[0].ppp rcvdPkFromHl:vector(packetBytes) ETV
attr interpolationmode none
attr source packetReceivedFromUpper
attr title "packets received from higher layer, vector(packetBytes)"
vector 25 scenario.client3.ppp[0].ppp.queue packetPushed:vector(packetBytes) ETV
attr interpolationmode none
attr title "packet pushed, vector(packetBytes)"
vector 26 scenario.client3.ppp[0].ppp.queue queueLength:vector ETV
attr interpolationmode sample-hold
attr source "count(packetPushed) - count(packetPopped) - count(packetRemoved) - count(packetDropped)"
attr title "queue length, vector"
vector 27 scenario.client3.ppp[0].ppp.queue packetPopped:vector(packetBytes) ETV
attr interpolationmode none
attr title "packet popped, vector(packetBytes)"
vector 28 scenario.client3.ppp[0].ppp.queue queueingTime:vector ETV
attr interpolationmode none
attr source queueingTime(packetPopped)
attr title "queueing times, vector"
attr unit s
vector 29 scenario.client3.ppp[0].ppp txPk:vector(packetBytes) ETV
attr interpolationmode none
attr source packetSentToLower
attr title "packets transmitted, vector(packetBytes)"
vector 30 scenario.client0.ppp[2].ppp rxPkOk:vector(packetBytes) ETV
attr interpolationmode none
attr source rxPkOk
attr title "packets received OK, vector(packetBytes)"
vector 31 scenario.client0.ppp[2].ppp passedUpPk:vector(packetBytes) ETV
attr interpolationmode none
attr source packetSentToUpper
attr title "packets passed to higher layer, vector(packetBytes)"
vector 32 scenario.client0.tcp.conn-0 rcvSeq:vector ETV
attr interpolationmode sample-hold
vector 33 scenario.client0.tcp.conn-0 rcvAck:vector ETV
attr interpolationmode sample-hold
vector 34 scenario.client0.tcp.conn-26 rcvAdv:vector ETV
attr interpolationmode sample-hold
vector 35 scenario.client0.tcp.conn-26 sndWnd:vector ETV
attr interpolationmode sample-hold
vector 36 scenario.client0.tcp.conn-26 tcpRcvQueueBytes:vector ETV
attr interpolationmode sample-hold
vector 37 scenario.client0.tcp.conn-26 rcvWnd:vector ETV
attr interpolationmode sample-hold
vector 38 scenario.client0.tcp.conn-26 sndAck:vector ETV
attr interpolationmode sample-hold
vector 39 scenario.client0.ppp[2].ppp rcvdPkFromHl:vector(packetBytes) ETV
attr interpolationmode none
attr source packetReceivedFromUpper
attr title "packets received from higher layer, vector(packetBytes)"
vector 40 scenario.client0.ppp[2].ppp.queue packetPushed:vector(packetBytes) ETV
attr interpolationmode none
attr title "packet pushed, vector(packetBytes)"
vector 41 scenario.client0.ppp[2].ppp.queue queueLength:vector ETV
attr interpolationmode sample-hold
attr source "count(packetPushed) - count(packetPopped) - count(packetRemoved) - count(packetDropped)"
attr title "queue length, vector"
vector 42 scenario.client0.ppp[2].ppp.queue packetPopped:vector(packetBytes) ETV
attr interpolationmode none
attr title "packet popped, vector(packetBytes)"
vector 43 scenario.client0.ppp[2].ppp.queue queueingTime:vector ETV
attr interpolationmode none
attr source queueingTime(packetPopped)
attr title "queueing times, vector"
attr unit s
vector 44 scenario.client0.ppp[2].ppp txPk:vector(packetBytes) ETV
attr interpolationmode none
attr source packetSentToLower
attr title "packets transmitted, vector(packetBytes)"
vector 45 scenario.client3.ppp[0].ppp rxPkOk:vector(packetBytes) ETV
attr interpolationmode none
attr source rxPkOk
attr title "packets received OK, vector(packetBytes)"
vector 46 scenario.client3.ppp[0].ppp passedUpPk:vector(packetBytes) ETV
attr interpolationmode none
attr source packetSentToUpper
attr title "packets passed to higher layer, vector(packetBytes)"
vector 47 scenario.client3.tcp.conn-25 rcvSeq:vector ETV
attr interpolationmode sample-hold
vector 48 scenario.client3.tcp.conn-25 rcvAck:vector ETV
attr interpolationmode sample-hold
vector 49 scenario.client3.tcp.conn-25 sndWnd:vector ETV
attr interpolationmode sample-hold
vector 50 scenario.client3.tcp.conn-25 unacked:vector ETV
attr interpolationmode sample-hold
vector 51 scenario.client0.tcp.conn-26 rcvSeq:vector ETV
attr interpolationmode sample-hold
vector 52 scenario.client0.tcp.conn-26 rcvAck:vector ETV
attr interpolationmode sample-hold
vector 53 scenario.client0.tcp.conn-26 unacked:vector ETV
attr interpolationmode sample-hold
vector 54 scenario.client0.tcp.conn-26 cwnd:vector ETV
attr interpolationmode sample-hold
vector 55 scenario.client0.tcp.conn-26 ssthresh:vector ETV
attr interpolationmode sample-hold
vector 56 scenario.client0.tcp.conn-26 dupAcks:vector ETV
attr interpolationmode sample-hold
vector 57 scenario.client0.tcp.conn-27 tcpRcvQueueBytes:vector ETV
attr interpolationmode sample-hold
vector 58 scenario.client0.tcp.conn-27 rcvAdv:vector ETV
attr interpolationmode sample-hold
vector 59 scenario.client0.tcp.conn-27 rcvWnd:vector ETV
attr interpolationmode sample-hold
vector 60 scenario.client0.tcp.conn-27 sndAck:vector ETV
attr interpolationmode sample-hold
vector 61 scenario.client0.ppp[1].ppp rcvdPkFromHl:vector(packetBytes) ETV
attr interpolationmode none
attr source packetReceivedFromUpper
attr title "packets received from higher layer, vector(packetBytes)"
vector 62 scenario.client0.ppp[1].ppp.queue packetPushed:vector(packetBytes) ETV
attr interpolationmode none
attr title "packet pushed, vector(packetBytes)"
vector 63 scenario.client0.ppp[1].ppp.queue queueLength:vector ETV
attr interpolationmode sample-hold
attr source "count(packetPushed) - count(packetPopped) - count(packetRemoved) - count(packetDropped)"
attr title "queue length, vector"
vector 64 scenario.client0.ppp[1].ppp.queue packetPopped:vector(packetBytes) ETV
attr interpolationmode none
attr title "packet popped, vector(packetBytes)"
vector 65 scenario.client0.ppp[1].ppp.queue queueingTime:vector ETV
attr interpolationmode none
attr source queueingTime(packetPopped)
attr title "queueing times, vector"
attr unit s
vector 66 scenario.client0.ppp[1].ppp txPk:vector(packetBytes) ETV
attr interpolationmode none
attr source packetSentToLower
attr title "packets transmitted, vector(packetBytes)"
vector 67 scenario.client3.tcp.conn-25 rtt:vector ETV
attr interpolationmode sample-hold
vector 68 scenario.client3.tcp.conn-25 srtt:vector ETV
attr interpolationmode sample-hold
vector 69 scenario.client3.tcp.conn-25 rttvar:vector ETV
attr interpolationmode sample-hold
vector 70 scenario.client3.tcp.conn-25 rto:vector ETV
attr interpolationmode sample-hold
vector 71 scenario.client3.tcp.conn-25 cwnd:vector ETV
attr interpolationmode sample-hold
vector 72 scenario.client3.tcp.conn-25 ssthresh:vector ETV
attr interpolationmode sample-hold
vector 73 scenario.client3.tcp.conn-25 dupAcks:vector ETV
attr interpolationmode sample-hold
vector 74 scenario.client2.ppp[0].ppp rxPkOk:vector(packetBytes) ETV
attr interpolationmode none
attr source rxPkOk
attr title "packets received OK, vector(packetBytes)"
vector 75 scenario.client2.ppp[0].ppp passedUpPk:vector(packetBytes) ETV
attr interpolationmode none
attr source packetSentToUpper
attr title "packets passed to higher layer, vector(packetBytes)"
vector 76 scenario.client2.tcp.conn-2 rcvSeq:vector ETV
attr interpolationmode sample-hold
vector 77 scenario.client2.tcp.conn-2 rcvAck:vector ETV
attr interpolationmode sample-hold
vector 78 scenario.client2.tcp.conn-28 rcvAdv:vector ETV
attr interpolationmode sample-hold
vector 79 scenario.client2.tcp.conn-28 sndWnd:vector ETV
attr interpolationmode sample-hold
vector 80 scenario.client2.tcp.conn-28 tcpRcvQueueBytes:vector ETV
attr interpolationmode sample-hold
vector 81 scenario.client2.tcp.conn-28 rcvWnd:vector ETV
attr interpolationmode sample-hold
vector 82 scenario.client2.tcp.conn-28 sndAck:vector ETV
attr interpolationmode sample-hold
vector 83 scenario.client2.ppp[0].ppp rcvdPkFromHl:vector(packetBytes) ETV
attr interpolationmode none
attr source packetReceivedFromUpper
attr title "packets received from higher layer, vector(packetBytes)"
vector 84 scenario.client2.ppp[0].ppp.queue packetPushed:vector(packetBytes) ETV
attr interpolationmode none
attr title "packet pushed, vector(packetBytes)"
vector 85 scenario.client2.ppp[0].ppp.queue queueLength:vector ETV
attr interpolationmode sample-hold
attr source "count(packetPushed) - count(packetPopped) - count(packetRemoved) - count(packetDropped)"
attr title "queue length, vector"
vector 86 scenario.client2.ppp[0].ppp.queue packetPopped:vector(packetBytes) ETV
attr interpolationmode none
attr title "packet popped, vector(packetBytes)"
vector 87 scenario.client2.ppp[0].ppp.queue queueingTime:vector ETV
attr interpolationmode none
attr source queueingTime(packetPopped)
attr title "queueing times, vector"
attr unit s
vector 88 scenario.client2.ppp[0].ppp txPk:vector(packetBytes) ETV
attr interpolationmode none
attr source packetSentToLower
attr title "packets transmitted, vector(packetBytes)"
vector 89 scenario.client0.ppp[1].ppp rxPkOk:vector(packetBytes) ETV
attr interpolationmode none
attr source rxPkOk
attr title "packets received OK, vector(packetBytes)"
vector 90 scenario.client0.ppp[1].ppp passedUpPk:vector(packetBytes) ETV
attr interpolationmode none
attr source packetSentToUpper
attr title "packets passed to higher layer, vector(packetBytes)"
vector 91 scenario.client0.tcp.conn-27 rcvSeq:vector ETV
attr interpolationmode sample-hold
vector 92 scenario.client0.tcp.conn-27 rcvAck:vector ETV
attr interpolationmode sample-hold
vector 93 scenario.client0.tcp.conn-27 sndWnd:vector ETV
attr interpolationmode sample-hold
vector 94 scenario.client0.tcp.conn-27 unacked:vector ETV
attr interpolationmode sample-hold
vector 95 scenario.client2.tcp.conn-28 rcvSeq:vector ETV
attr interpolationmode sample-hold
vector 96 scenario.client2.tcp.conn-28 rcvAck:vector ETV
attr interpolationmode sample-hold
vector 97 scenario.client2.tcp.conn-28 unacked:vector ETV
attr interpolationmode sample-hold
vector 98 scenario.client2.tcp.conn-28 cwnd:vector ETV
attr interpolationmode sample-hold
vector 99 scenario.client2.tcp.conn-28 ssthresh:vector ETV
attr interpolationmode sample-hold
vector 100 scenario.client2.tcp.conn-28 dupAcks:vector ETV
attr interpolationmode sample-hold
vector 101 scenario.client0.tcp.conn-27 rtt:vector ETV
attr interpolationmode sample-hold
vector 102 scenario.client0.tcp.conn-27 srtt:vector ETV
attr interpolationmode sample-hold
vector 103 scenario.client0.tcp.conn-27 rttvar:vector ETV
attr interpolationmode sample-hold
vector 104 scenario.client0.tcp.conn-27 rto:vector ETV
attr interpolationmode sample-hold
vector 105 scenario.client0.tcp.conn-27 cwnd:vector ETV
attr interpolationmode sample-hold
vector 106 scenario.client0.tcp.conn-27 ssthresh:vector ETV
attr interpolationmode sample-hold
vector 107 scenario.client0.tcp.conn-27 dupAcks:vector ETV
attr interpolationmode sample-hold
vector 108 scenario.client1.tcp.conn-29 tcpRcvQueueBytes:vector ETV
attr interpolationmode sample-hold
vector 109 scenario.client1.tcp.conn-29 rcvAdv:vector ETV
attr interpolationmode sample-hold
vector 110 scenario.client1.tcp.conn-29 rcvWnd:vector ETV
attr interpolationmode sample-hold
vector 111 scenario.client1.tcp.conn-29 sndAck:vector ETV
attr interpolationmode sample-hold
vector 112 scenario.client1.ppp[0].ppp rcvdPkFromHl:vector(packetBytes) ETV
attr interpolationmode none
attr source packetReceivedFromUpper
attr title "packets received from higher layer, vector(packetBytes)"
vector 113 scenario.client1.ppp[0].ppp.queue packetPushed:vector(packetBytes) ETV
attr interpolationmode none
attr title "packet pushed, vector(packetBytes)"
vector 114 scenario.client1.ppp[0].ppp.queue queueLength:vector ETV
attr interpolationmode sample-hold
attr source "count(packetPushed) - count(packetPopped) - count(packetRemoved) - count(packetDropped)"
attr title "queue length, vector"
vector 115 scenario.client1.ppp[0].ppp.queue packetPopped:vector(packetBytes) ETV
attr interpolationmode none
attr title "packet popped, vector(packetBytes)"
vector 116 scenario.client1.ppp[0].ppp.queue queueingTime:vector ETV
attr interpolationmode none
attr source queueingTime(packetPopped)
attr title "queueing times, vector"
attr unit s
vector 117 scenario.client1.ppp[0].ppp txPk:vector(packetBytes) ETV
attr interpolationmode none
attr source packetSentToLower
attr title "packets transmitted, vector(packetBytes)"
vector 118 scenario.client0.ppp[0].ppp rxPkOk:vector(packetBytes) ETV
attr interpolationmode none
attr source rxPkOk
attr title "packets received OK, vector(packetBytes)"
vector 119 scenario.client0.ppp[0].ppp passedUpPk:vector(packetBytes) ETV
attr interpolationmode none
attr source packetSentToUpper
attr title "packets passed to higher layer, vector(packetBytes)"
vector 120 scenario.client0.tcp.conn-30 rcvAdv:vector ETV
attr interpolationmode sample-hold
vector 121 scenario.client0.tcp.conn-30 sndWnd:vector ETV
attr interpolationmode sample-hold
vector 122 scenario.client0.tcp.conn-30 tcpRcvQueueBytes:vector ETV
attr interpolationmode sample-hold
vector 123 scenario.client0.tcp.conn-30 rcvWnd:vector ETV
attr interpolationmode sample-hold
vector 124 scenario.client0.tcp.conn-30 sndAck:vector ETV
attr interpolationmode sample-hold
vector 125 scenario.client0.ppp[0].ppp rcvdPkFromHl:vector(packetBytes) ETV
attr interpolationmode none
attr source packetReceivedFromUpper
attr title "packets received from higher layer, vector(packetBytes)"
vector 126 scenario.client0.ppp[0].ppp.queue packetPushed:vector(packetBytes) ETV
attr interpolationmode none
attr title "packet pushed, vector(packetBytes)"
vector 127 scenario.client0.ppp[0].ppp.queue queueLength:vector ETV
attr interpolationmode sample-hold
attr source "count(packetPushed) - count(packetPopped) - count(packetRemoved) - count(packetDropped)"
attr title "queue length, vector"
vector 128 scenario.client0.ppp[0].ppp.queue packetPopped:vector(packetBytes) ETV
attr interpolationmode none
attr title "packet popped, vector(packetBytes)"
vector 129 scenario.client0.ppp[0].ppp.queue queueingTime:vector ETV
attr interpolationmode none
attr source queueingTime(packetPopped)
attr title "queueing times, vector"
attr unit s
vector 130 scenario.client0.ppp[0].ppp txPk:vector(packetBytes) ETV
attr interpolationmode none
attr source packetSentToLower
attr title "packets transmitted, vector(packetBytes)"
vector 131 scenario.client1.ppp[0].ppp rxPkOk:vector(packetBytes) ETV
attr interpolationmode none
attr source rxPkOk
attr title "packets received OK, vector(packetBytes)"
vector 132 scenario.client1.ppp[0].ppp passedUpPk:vector(packetBytes) ETV
attr interpolationmode none
attr source packetSentToUpper
attr title "packets passed to higher layer, vector(packetBytes)"
vector 133 scenario.client1.tcp.conn-29 rcvSeq:vector ETV
attr interpolationmode sample-hold
vector 134 scenario.client1.tcp.conn-29 rcvAck:vector ETV
attr interpolationmode sample-hold
vector 135 scenario.client1.tcp.conn-29 sndWnd:vector ETV
attr interpolationmode sample-hold
vector 136 scenario.client1.tcp.conn-29 unacked:vector ETV
attr interpolationmode sample-hold
vector 137 scenario.client0.tcp.conn-30 rcvSeq:vector ETV
attr interpolationmode sample-hold
vector 138 scenario.client0.tcp.conn-30 rcvAck:vector ETV
attr interpolationmode sample-hold
vector 139 scenario.client0.tcp.conn-30 unacked:vector ETV
attr interpolationmode sample-hold
vector 140 scenario.client0.tcp.conn-30 cwnd:vector ETV
attr interpolationmode sample-hold
vector 141 scenario.client0.tcp.conn-30 ssthresh:vector ETV
attr interpolationmode sample-hold
vector 142 scenario.client0.tcp.conn-30 dupAcks:vector ETV
attr interpolationmode sample-hold
vector 143 scenario.client1.tcp.conn-29 rtt:vector ETV
attr interpolationmode sample-hold
vector 144 scenario.client1.tcp.conn-29 srtt:vector ETV
attr interpolationmode sample-hold
vector 145 scenario.client1.tcp.conn-29 rttvar:vector ETV
attr interpolationmode sample-hold
vector 146 scenario.client1.tcp.conn-29 rto:vector ETV
attr interpolationmode sample-hold
vector 147 scenario.client1.tcp.conn-29 cwnd:vector ETV
attr interpolationmode sample-hold
vector 148 scenario.client1.tcp.conn-29 ssthresh:vector ETV
attr interpolationmode sample-hold
vector 149 scenario.client1.tcp.conn-29 dupAcks:vector ETV
attr interpolationmode sample-hold
vector 150 scenario.client3.tcp.conn-31 tcpRcvQueueBytes:vector ETV
attr interpolationmode sample-hold
vector 151 scenario.client3.tcp.conn-31 rcvAdv:vector ETV
attr interpolationmode sample-hold
vector 152 scenario.client3.tcp.conn-31 rcvWnd:vector ETV
attr interpolationmode sample-hold
vector 153 scenario.client3.tcp.conn-31 sndAck:vector ETV
attr interpolationmode sample-hold
vector 154 scenario.client3.ppp[1].ppp rcvdPkFromHl:vector(packetBytes) ETV
attr interpolationmode none
attr source packetReceivedFromUpper
attr title "packets received from higher layer, vector(packetBytes)"
vector 155 scenario.client3.ppp[1].ppp.queue packetPushed:vector(packetBytes) ETV
attr interpolationmode none
attr title "packet pushed, vector(packetBytes)"
vector 156 scenario.client3.ppp[1].ppp.queue queueLength:vector ETV
attr interpolationmode sample-hold
attr source "count(packetPushed) - count(packetPopped) - count(packetRemoved) - count(packetDropped)"
attr title "queue length, vector"
vector 157 scenario.client3.ppp[1].ppp.queue packetPopped:vector(packetBytes) ETV
attr interpolationmode none
attr title "packet popped, vector(packetBytes)"
vector 158 scenario.client3.ppp[1].ppp.queue queueingTime:vector ETV
attr interpolationmode none
attr source queueingTime(packetPopped)
attr title "queueing times, vector"
attr unit s
vector 159 scenario.client3.ppp[1].ppp txPk:vector(packetBytes) ETV
attr interpolationmode none
attr source packetSentToLower
attr title "packets transmitted, vector(packetBytes)"
vector 160 scenario.client1.ppp[2].ppp rxPkOk:vector(packetBytes) ETV
attr interpolationmode none
attr source rxPkOk
attr title "packets received OK, vector(packetBytes)"
vector 161 scenario.client1.ppp[2].ppp passedUpPk:vector(packetBytes) ETV
attr interpolationmode none
attr source packetSentToUpper
attr title "packets passed to higher layer, vector(packetBytes)"
vector 162 scenario.client1.tcp.conn-1 rcvSeq:vector ETV
attr interpolationmode sample-hold
vector 163 scenario.client1.tcp.conn-1 rcvAck:vector ETV
attr interpolationmode sample-hold
vector 164 scenario.client1.tcp.conn-32 rcvAdv:vector ETV
attr interpolationmode sample-hold
vector 165 scenario.client1.tcp.conn-32 sndWnd:vector ETV
attr interpolationmode sample-hold
vector 166 scenario.client1.tcp.conn-32 tcpRcvQueueBytes:vector ETV
attr interpolationmode sample-hold
vector 167 scenario.client1.tcp.conn-32 rcvWnd:vector ETV
attr interpolationmode sample-hold
vector 168 scenario.client1.tcp.conn-32 sndAck:vector ETV
attr interpolationmode sample-hold
vector 169 scenario.client1.ppp[2].ppp rcvdPkFromHl:vector(packetBytes) ETV
attr interpolationmode none
attr source packetReceivedFromUpper
attr title "packets received from higher layer, vector(packetBytes)"
vector 170 scenario.client1.ppp[2].ppp.queue packetPushed:vector(packetBytes) ETV
attr interpolationmode none
attr title "packet pushed, vector(packetBytes)"
vector 171 scenario.client1.ppp[2].ppp.queue queueLength:vector ETV
attr interpolationmode sample-hold
attr source "count(packetPushed) - count(packetPopped) - count(packetRemoved) - count(packetDropped)"
attr title "queue length, vector"
vector 172 scenario.client1.ppp[2].ppp.queue packetPopped:vector(packetBytes) ETV
attr interpolationmode none
attr title "packet popped, vector(packetBytes)"
vector 173 scenario.client1.ppp[2].ppp.queue queueingTime:vector ETV
attr interpolationmode none
attr source queueingTime(packetPopped)
attr title "queueing times, vector"
attr unit s
vector 174 scenario.client1.ppp[2].ppp txPk:vector(packetBytes) ETV
attr interpolationmode none
attr source packetSentToLower
attr title "packets transmitted, vector(packetBytes)"
vector 175 scenario.client3.ppp[1].ppp rxPkOk:vector(packetBytes) ETV
attr interpolationmode none
attr source rxPkOk
attr title "packets received OK, vector(packetBytes)"
vector 176 scenario.client3.ppp[1].ppp passedUpPk:vector(packetBytes) ETV
attr interpolationmode none
attr source packetSentToUpper
attr title "packets passed to higher layer, vector(packetBytes)"
vector 177 scenario.client3.tcp.conn-31 rcvSeq:vector ETV
attr interpolationmode sample-hold
vector 178 scenario.client3.tcp.conn-31 rcvAck:vector ETV
attr interpolationmode sample-hold
vector 179 scenario.client3.tcp.conn-31 sndWnd:vector ETV
attr interpolationmode sample-hold
vector 180 scenario.client3.tcp.conn-31 unacked:vector ETV
attr interpolationmode sample-hold
vector 181 scenario.client1.tcp.conn-32 rcvSeq:vector ETV
attr interpolationmode sample-hold
vector 182 scenario.client1.tcp.conn-32 rcvAck:vector ETV
attr interpolationmode sample-hold
vector 183 scenario.client1.tcp.conn-32 unacked:vector ETV
attr interpolationmode sample-hold
vector 184 scenario.client1.tcp.conn-32 cwnd:vector ETV
attr interpolationmode sample-hold
vector 185 scenario.client1.tcp.conn-32 ssthresh:vector ETV
attr interpolationmode sample-hold
vector 186 scenario.client1.tcp.conn-32 dupAcks:vector ETV
attr interpolationmode sample-hold
vector 187 scenario.client3.tcp.conn-31 rtt:vector ETV
attr interpolationmode sample-hold
vector 188 scenario.client3.tcp.conn-31 srtt:vector ETV
attr interpolationmode sample-hold
vector 189 scenario.client3.tcp.conn-31 rttvar:vector ETV
attr interpolationmode sample-hold
vector 190 scenario.client3.tcp.conn-31 rto:vector ETV
attr interpolationmode sample-hold
vector 191 scenario.client3.tcp.conn-31 cwnd:vector ETV
attr interpolationmode sample-hold
vector 192 scenario.client3.tcp.conn-31 ssthresh:vector ETV
attr interpolationmode sample-hold
vector 193 scenario.client3.tcp.conn-31 dupAcks:vector ETV
attr interpolationmode sample-hold
vector 194 scenario.client1.tcp.conn-33 tcpRcvQueueBytes:vector ETV
attr interpolationmode sample-hold
vector 195 scenario.client1.tcp.conn-33 rcvAdv:vector ETV
attr interpolationmode sample-hold
vector 196 scenario.client1.tcp.conn-33 rcvWnd:vector ETV
attr interpolationmode sample-hold
vector 197 scenario.client1.tcp.conn-33 sndAck:vector ETV
attr interpolationmode sample-hold
vector 198 scenario.client1.ppp[1].ppp rcvdPkFromHl:vector(packetBytes) ETV
attr interpolationmode none
attr source packetReceivedFromUpper
attr title "packets received from higher layer, vector(packetBytes)"
vector 199 scenario.client1.ppp[1].ppp.queue packetPushed:vector(packetBytes) ETV
attr interpolationmode none
attr title "packet pushed, vector(packetBytes)"
vector 200 scenario.client1.ppp[1].ppp.queue queueLength:vector ETV
attr interpolationmode sample-hold
attr source "count(packetPushed) - count(packetPopped) - count(packetRemoved) - count(packetDropped)"
attr title "queue length, vector"
vector 201 scenario.client1.ppp[1].ppp.queue packetPopped:vector(packetBytes) ETV
attr interpolationmode none
attr title "packet popped, vector(packetBytes)"
vector 202 scenario.client1.ppp[1].ppp.queue queueingTime:vector ETV
attr interpolationmode none
attr source queueingTime(packetPopped)
attr title "queueing times, vector"
attr unit s
vector 203 scenario.client1.ppp[1].ppp txPk:vector(packetBytes) ETV
attr interpolationmode none
attr source packetSentToLower
attr title "packets transmitted, vector(packetBytes)"
vector 204 scenario.client2.ppp[1].ppp rxPkOk:vector(packetBytes) ETV
attr interpolationmode none
attr source rxPkOk
attr title "packets received OK, vector(packetBytes)"
vector 205 scenario.client2.ppp[1].ppp passedUpPk:vector(packetBytes) ETV
attr interpolationmode none
attr source packetSentToUpper
attr title "packets passed to higher layer, vector(packetBytes)"
vector 206 scenario.client2.tcp.conn-34 rcvAdv:vector ETV
attr interpolationmode sample-hold
vector 207 scenario.client2.tcp.conn-34 sndWnd:vector ETV
attr interpolationmode sample-hold
vector 208 scenario.client2.tcp.conn-34 tcpRcvQueueBytes:vector ETV
attr interpolationmode sample-hold
vector 209 scenario.client2.tcp.conn-34 rcvWnd:vector ETV
attr interpolationmode sample-hold
vector 210 scenario.client2.tcp.conn-34 sndAck:vector ETV
attr interpolationmode sample-hold
vector 211 scenario.client2.ppp[1].ppp rcvdPkFromHl:vector(packetBytes) ETV
attr interpolationmode none
attr source packetReceivedFromUpper
attr title "packets received from higher layer, vector(packetBytes)"
vector 212 scenario.client2.ppp[1].ppp.queue packetPushed:vector(packetBytes) ETV
attr interpolationmode none
attr title "packet pushed, vector(packetBytes)"
vector 213 scenario.client2.ppp[1].ppp.queue queueLength:vector ETV
attr interpolationmode sample-hold
attr source "count(packetPushed) - count(packetPopped) - count(packetRemoved) - count(packetDropped)"
attr title "queue length, vector"
vector 214 scenario.client2.ppp[1].ppp.queue packetPopped:vector(packetBytes) ETV
attr interpolationmode none
attr title "packet popped, vector(packetBytes)"
vector 215 scenario.client2.ppp[1].ppp.queue queueingTime:vector ETV
attr interpolationmode none
attr source queueingTime(packetPopped)
attr title "queueing times, vector"
attr unit s
vector 216 scenario.client2.ppp[1].ppp txPk:vector(packetBytes) ETV
attr interpolationmode none
attr source packetSentToLower
attr title "packets transmitted, vector(packetBytes)"
vector 217 scenario.client1.ppp[1].ppp rxPkOk:vector(packetBytes) ETV
attr interpolationmode none
attr source rxPkOk
attr title "packets received OK, vector(packetBytes)"
vector 218 scenario.client1.ppp[1].ppp passedUpPk:vector(packetBytes) ETV
attr interpolationmode none
attr source packetSentToUpper
attr title "packets passed to higher layer, vector(packetBytes)"
vector 219 scenario.client1.tcp.conn-33 rcvSeq:vector ETV
attr interpolationmode sample-hold
vector 220 scenario.client1.tcp.conn-33 rcvAck:vector ETV
attr interpolationmode sample-hold
vector 221 scenario.client1.tcp.conn-33 sndWnd:vector ETV
attr interpolationmode sample-hold
vector 222 scenario.client1.tcp.conn-33 unacked:vector ETV
attr interpolationmode sample-hold
vector 223 scenario.client2.tcp.conn-34 rcvSeq:vector ETV
attr interpolationmode sample-hold
vector 224 scenario.client2.tcp.conn-34 rcvAck:vector ETV
attr interpolationmode sample-hold
vector 225 scenario.client2.tcp.conn-34 unacked:vector ETV
attr interpolationmode sample-hold
vector 226 scenario.client2.tcp.conn-34 cwnd:vector ETV
attr interpolationmode sample-hold
vector 227 scenario.client2.tcp.conn-34 ssthresh:vector ETV
attr interpolationmode sample-hold
vector 228 scenario.client2.tcp.conn-34 dupAcks:vector ETV
attr interpolationmode sample-hold
vector 229 scenario.client1.tcp.conn-33 rtt:vector ETV
attr interpolationmode sample-hold
vector 230 scenario.client1.tcp.conn-33 srtt:vector ETV
attr interpolationmode sample-hold
vector 231 scenario.client1.tcp.conn-33 rttvar:vector ETV
attr interpolationmode sample-hold
vector 232 scenario.client1.tcp.conn-33 rto:vector ETV
attr interpolationmode sample-hold
vector 233 scenario.client1.tcp.conn-33 cwnd:vector ETV
attr interpolationmode sample-hold
vector 234 scenario.client1.tcp.conn-33 ssthresh:vector ETV
attr interpolationmode sample-hold
vector 235 scenario.client1.tcp.conn-33 dupAcks:vector ETV
attr interpolationmode sample-hold
vector 236 scenario.client0.tcp.conn-35 tcpRcvQueueBytes:vector ETV
attr interpolationmode sample-hold
vector 237 scenario.client0.tcp.conn-35 rcvAdv:vector ETV
attr interpolationmode sample-hold
vector 238 scenario.client0.tcp.conn-35 rcvWnd:vector ETV
attr interpolationmode sample-hold
vector 239 scenario.client0.tcp.conn-35 sndAck:vector ETV
attr interpolationmode sample-hold
vector 240 scenario.client3.tcp.conn-3 rcvSeq:vector ETV
attr interpolationmode sample-hold
vector 241 scenario.client3.tcp.conn-3 rcvAck:vector ETV
attr interpolationmode sample-hold
vector 242 scenario.client3.tcp.conn-36 rcvAdv:vector ETV
attr interpolationmode sample-hold
vector 243 scenario.client3.tcp.conn-36 sndWnd:vector ETV
attr interpolationmode sample-hold
vector 244 scenario.client3.tcp.conn-36 tcpRcvQueueBytes:vector ETV
attr interpolationmode sample-hold
vector 245 scenario.client3.tcp.conn-36 rcvWnd:vector ETV
attr interpolationmode sample-hold
vector 246 scenario.client3.tcp.conn-36 sndAck:vector ETV
attr interpolationmode sample-hold
vector 247 scenario.client0.tcp.conn-35 rcvSeq:vector ETV
attr interpolationmode sample-hold
vector 248 scenario.client0.tcp.conn-35 rcvAck:vector ETV
attr interpolationmode sample-hold
vector 249 scenario.client0.tcp.conn-35 sndWnd:vector ETV
attr interpolationmode sample-hold
vector 250 scenario.client0.tcp.conn-35 unacked:vector ETV
attr interpolationmode sample-hold
vector 251 scenario.client3.tcp.conn-36 rcvSeq:vector ETV
attr interpolationmode sample-hold
vector 252 scenario.client3.tcp.conn-36 rcvAck:vector ETV
attr interpolationmode sample-hold
vector 253 scenario.client3.tcp.conn-36 unacked:vector ETV
attr interpolationmode sample-hold
vector 254 scenario.client3.tcp.conn-36 cwnd:vector ETV
attr interpolationmode sample-hold
vector 255 scenario.client3.tcp.conn-36 ssthresh:vector ETV
attr interpolationmode sample-hold
vector 256 scenario.client3.tcp.conn-36 dupAcks:vector ETV
attr interpolationmode sample-hold
vector 257 scenario.client0.tcp.conn-35 rtt:vector ETV
attr interpolationmode sample-hold
vector 258 scenario.client0.tcp.conn-35 srtt:vector ETV
attr interpolationmode sample-hold
vector 259 scenario.client0.tcp.conn-35 rttvar:vector ETV
attr interpolationmode sample-hold
vector 260 scenario.client0.tcp.conn-35 rto:vector ETV
attr interpolationmode sample-hold
vector 261 scenario.client0.tcp.conn-35 cwnd:vector ETV
attr interpolationmode sample-hold
vector 262 scenario.client0.tcp.conn-35 ssthresh:vector ETV
attr interpolationmode sample-hold
vector 263 scenario.client0.tcp.conn-35 dupAcks:vector ETV
attr interpolationmode sample-hold
vector 264 scenario.client2.tcp.conn-37 tcpRcvQueueBytes:vector ETV
attr interpolationmode sample-hold
vector 265 scenario.client2.tcp.conn-37 rcvAdv:vector ETV
attr interpolationmode sample-hold
vector 266 scenario.client2.tcp.conn-37 rcvWnd:vector ETV
attr interpolationmode sample-hold
vector 267 scenario.client2.tcp.conn-37 sndAck:vector ETV
attr interpolationmode sample-hold
vector 268 scenario.client1.tcp.conn-38 rcvAdv:vector ETV
attr interpolationmode sample-hold
vector 269 scenario.client1.tcp.conn-38 sndWnd:vector ETV
attr interpolationmode sample-hold
vector 270 scenario.client1.tcp.conn-38 tcpRcvQueueBytes:vector ETV
attr interpolationmode sample-hold
vector 271 scenario.client1.tcp.conn-38 rcvWnd:vector ETV
attr interpolationmode sample-hold
vector 272 scenario.client1.tcp.conn-38 sndAck:vector ETV
attr interpolationmode sample-hold
vector 273 scenario.client2.tcp.conn-37 rcvSeq:vector ETV
attr interpolationmode sample-hold
vector 274 scenario.client2.tcp.conn-37 rcvAck:vector ETV
attr interpolationmode sample-hold
vector 275 scenario.client2.tcp.conn-37 sndWnd:vector ETV
attr interpolationmode sample-hold
vector 276 scenario.client2.tcp.conn-37 unacked:vector ETV
attr interpolationmode sample-hold
vector 277 scenario.client1.tcp.conn-38 rcvSeq:vector ETV
attr interpolationmode sample-hold
vector 278 scenario.client1.tcp.conn-38 rcvAck:vector ETV
attr interpolationmode sample-hold
vector 279 scenario.client1.tcp.conn-38 unacked:vector ETV
attr interpolationmode sample-hold
vector 280 scenario.client1.tcp.conn-38 cwnd:vector ETV
attr interpolationmode sample-hold
vector 281 scenario.client1.tcp.conn-38 ssthresh:vector ETV
attr interpolationmode sample-hold
vector 282 scenario.client1.tcp.conn-38 dupAcks:vector ETV
attr interpolationmode sample-hold
vector 283 scenario.client2.tcp.conn-37 rtt:vector ETV
attr interpolationmode sample-hold
vector 284 scenario.client2.tcp.conn-37 srtt:vector ETV
attr interpolationmode sample-hold
vector 285 scenario.client2.tcp.conn-37 rttvar:vector ETV
attr interpolationmode sample-hold
vector 286 scenario.client2.tcp.conn-37 rto:vector ETV
attr interpolationmode sample-hold
vector 287 scenario.client2.tcp.conn-37 cwnd:vector ETV
attr interpolationmode sample-hold
vector 288 scenario.client2.tcp.conn-37 ssthresh:vector ETV
attr interpolationmode sample-hold
vector 289 scenario.client2.tcp.conn-37 dupAcks:vector ETV
attr interpolationmode sample-hold
vector 290 scenario.client0.tcp.conn-39 tcpRcvQueueBytes:vector ETV
attr interpolationmode sample-hold
vector 291 scenario.client0.tcp.conn-39 rcvAdv:vector ETV
attr interpolationmode sample-hold
vector 292 scenario.client0.tcp.conn-39 rcvWnd:vector ETV
attr interpolationmode sample-hold
vector 293 scenario.client0.tcp.conn-39 sndAck:vector ETV
attr interpolationmode sample-hold
vector 294 scenario.client1.tcp.conn-40 rcvAdv:vector ETV
attr interpolationmode sample-hold
vector 295 scenario.client1.tcp.conn-40 sndWnd:vector ETV
attr interpolationmode sample-hold
vector 296 scenario.client1.tcp.conn-40 tcpRcvQueueBytes:vector ETV
attr interpolationmode sample-hold
vector 297 scenario.client1.tcp.conn-40 rcvWnd:vector ETV
attr interpolationmode sample-hold
vector 298 scenario.client1.tcp.conn-40 sndAck:vector ETV
attr interpolationmode sample-hold
vector 299 scenario.client0.tcp.conn-39 rcvSeq:vector ETV
attr interpolationmode sample-hold
vector 300 scenario.client0.tcp.conn-39 rcvAck:vector ETV
attr interpolationmode sample-hold
vector 301 scenario.client0.tcp.conn-39 sndWnd:vector ETV
attr interpolationmode sample-hold
vector 302 scenario.client0.tcp.conn-39 unacked:vector ETV
attr interpolationmode sample-hold
vector 303 scenario.client1.tcp.conn-40 rcvSeq:vector ETV
attr interpolationmode sample-hold
vector 304 scenario.client1.tcp.conn-40 rcvAck:vector ETV
attr interpolationmode sample-hold
vector 305 scenario.client1.tcp.conn-40 unacked:vector ETV
attr interpolationmode sample-hold
vector 306 scenario.client1.tcp.conn-40 cwnd:vector ETV
attr interpolationmode sample-hold
vector 307 scenario.client1.tcp.conn-40 ssthresh:vector ETV
attr interpolationmode sample-hold
vector 308 scenario.client1.tcp.conn-40 dupAcks:vector ETV
attr interpolationmode sample-hold
vector 309 scenario.client0.tcp.conn-39 rtt:vector ETV
attr interpolationmode sample-hold
vector 310 scenario.client0.tcp.conn-39 srtt:vector ETV
attr interpolationmode sample-hold
vector 311 scenario.client0.tcp.conn-39 rttvar:vector ETV
attr interpolationmode sample-hold
vector 312 scenario.client0.tcp.conn-39 rto:vector ETV
attr interpolationmode sample-hold
vector 313 scenario.client0.tcp.conn-39 cwnd:vector ETV
attr interpolationmode sample-hold
vector 314 scenario.client0.tcp.conn-39 ssthresh:vector ETV
attr interpolationmode sample-hold
vector 315 scenario.client0.tcp.conn-39 dupAcks:vector ETV
attr interpolationmode sample-hold
vector 316 scenario.client3.tcp.conn-41 tcpRcvQueueBytes:vector ETV
attr interpolationmode sample-hold
vector 317 scenario.client3.tcp.conn-41 rcvAdv:vector ETV
attr interpolationmode sample-hold
vector 318 scenario.client3.tcp.conn-41 rcvWnd:vector ETV
attr interpolationmode sample-hold
vector 319 scenario.client3.tcp.conn-41 sndAck:vector ETV
attr interpolationmode sample-hold
vector 320 scenario.client3.ppp[2].ppp rcvdPkFromHl:vector(packetBytes) ETV
attr interpolationmode none
attr source packetReceivedFromUpper
attr title "packets received from higher layer, vector(packetBytes)"
vector 321 scenario.client3.ppp[2].ppp.queue packetPushed:vector(packetBytes) ETV
attr interpolationmode none
attr title "packet pushed, vector(packetBytes)"
vector 322 scenario.client3.ppp[2].ppp.queue queueLength:vector ETV
attr interpolationmode sample-hold
attr source "count(packetPushed) - count(packetPopped) - count(packetRemoved) - count(packetDropped)"
attr title "queue length, vector"
vector 323 scenario.client3.ppp[2].ppp.queue packetPopped:vector(packetBytes) ETV
attr interpolationmode none
attr title "packet popped, vector(packetBytes)"
vector 324 scenario.client3.ppp[2].ppp.queue queueingTime:vector ETV
attr interpolationmode none
attr source queueingTime(packetPopped)
attr title "queueing times, vector"
attr unit s
vector 325 scenario.client3.ppp[2].ppp txPk:vector(packetBytes) ETV
attr interpolationmode none
attr source packetSentToLower
attr title "packets transmitted, vector(packetBytes)"
vector 326 scenario.client2.ppp[2].ppp rxPkOk:vector(packetBytes) ETV
attr interpolationmode none
attr source rxPkOk
attr title "packets received OK, vector(packetBytes)"
vector 327 scenario.client2.ppp[2].ppp passedUpPk:vector(packetBytes) ETV
attr interpolationmode none
attr source packetSentToUpper
attr title "packets passed to higher layer, vector(packetBytes)"
vector 328 scenario.client2.tcp.conn-42 rcvAdv:vector ETV
attr interpolationmode sample-hold
vector 329 scenario.client2.tcp.conn-42 sndWnd:vector ETV
attr interpolationmode sample-hold
vector 330 scenario.client2.tcp.conn-42 tcpRcvQueueBytes:vector ETV
attr interpolationmode sample-hold
vector 331 scenario.client2.tcp.conn-42 rcvWnd:vector ETV
attr interpolationmode sample-hold
vector 332 scenario.client2.tcp.conn-42 sndAck:vector ETV
attr interpolationmode sample-hold
vector 333 scenario.client2.ppp[2].ppp rcvdPkFromHl:vector(packetBytes) ETV
attr interpolationmode none
attr source packetReceivedFromUpper
attr title "packets received from higher layer, vector(packetBytes)"
vector 334 scenario.client2.ppp[2].ppp.queue packetPushed:vector(packetBytes) ETV
attr interpolationmode none
attr title "packet pushed, vector(packetBytes)"
vector 335 scenario.client2.ppp[2].ppp.queue queueLength:vector ETV
attr interpolationmode sample-hold
attr source "count(packetPushed) - count(packetPopped) - count(packetRemoved) - count(packetDropped)"
attr title "queue length, vector"
vector 336 scenario.client2.ppp[2].ppp.queue packetPopped:vector(packetBytes) ETV
attr interpolationmode none
attr title "packet popped, vector(packetBytes)"
vector 337 scenario.client2.ppp[2].ppp.queue queueingTime:vector ETV
attr interpolationmode none
attr source queueingTime(packetPopped)
attr title "queueing times, vector"
attr unit s
vector 338 scenario.client2.ppp[2].ppp txPk:vector(packetBytes) ETV
attr interpolationmode none
attr source packetSentToLower
attr title "packets transmitted, vector(packetBytes)"
vector 339 scenario.client3.ppp[2].ppp rxPkOk:vector(packetBytes) ETV
attr interpolationmode none
attr source rxPkOk
attr title "packets received OK, vector(packetBytes)"
vector 340 scenario.client3.ppp[2].ppp passedUpPk:vector(packetBytes) ETV
attr interpolationmode none
attr source packetSentToUpper
attr title "packets passed to higher layer, vector(packetBytes)"
vector 341 scenario.client3.tcp.conn-41 rcvSeq:vector ETV
attr interpolationmode sample-hold
vector 342 scenario.client3.tcp.conn-41 rcvAck:vector ETV
attr interpolationmode sample-hold
vector 343 scenario.client3.tcp.conn-41 sndWnd:vector ETV
attr interpolationmode sample-hold
vector 344 scenario.client3.tcp.conn-41 unacked:vector ETV
attr interpolationmode sample-hold
vector 345 scenario.client2.tcp.conn-42 rcvSeq:vector ETV
attr interpolationmode sample-hold
vector 346 scenario.client2.tcp.conn-42 rcvAck:vector ETV
attr interpolationmode sample-hold
vector 347 scenario.client2.tcp.conn-42 unacked:vector ETV
attr interpolationmode sample-hold
vector 348 scenario.client2.tcp.conn-42 cwnd:vector ETV
attr interpolationmode sample-hold
vector 349 scenario.client2.tcp.conn-42 ssthresh:vector ETV
attr interpolationmode sample-hold
vector 350 scenario.client2.tcp.conn-42 dupAcks:vector ETV
attr interpolationmode sample-hold
vector 351 scenario.client3.tcp.conn-41 rtt:vector ETV
attr interpolationmode sample-hold
vector 352 scenario.client3.tcp.conn-41 srtt:vector ETV
attr interpolationmode sample-hold
vector 353 scenario.client3.tcp.conn-41 rttvar:vector ETV
attr interpolationmode sample-hold
vector 354 scenario.client3.tcp.conn-41 rto:vector ETV
attr interpolationmode sample-hold
vector 355 scenario.client3.tcp.conn-41 cwnd:vector ETV
attr interpolationmode sample-hold
vector 356 scenario.client3.tcp.conn-41 ssthresh:vector ETV
attr interpolationmode sample-hold
vector 357 scenario.client3.tcp.conn-41 dupAcks:vector ETV
attr interpolationmode sample-hold
vector 358 scenario.client1.tcp.conn-43 tcpRcvQueueBytes:vector ETV
attr interpolationmode sample-hold
vector 359 scenario.client1.tcp.conn-43 rcvAdv:vector ETV
attr interpolationmode sample-hold
vector 360 scenario.client1.tcp.conn-43 rcvWnd:vector ETV
attr interpolationmode sample-hold
vector 361 scenario.client1.tcp.conn-43 sndAck:vector ETV
attr interpolationmode sample-hold
vector 362 scenario.client3.tcp.conn-44 rcvAdv:vector ETV
attr interpolationmode sample-hold
vector 363 scenario.client3.tcp.conn-44 sndWnd:vector ETV
attr interpolationmode sample-hold
vector 364 scenario.client3.tcp.conn-44 tcpRcvQueueBytes:vector ETV
attr interpolationmode sample-hold
vector 365 scenario.client3.tcp.conn-44 rcvWnd:vector ETV
attr interpolationmode sample-hold
vector 366 scenario.client3.tcp.conn-44 sndAck:vector ETV
attr interpolationmode sample-hold
vector 367 scenario.client1.tcp.conn-43 rcvSeq:vector ETV
attr interpolationmode sample-hold
vector 368 scenario.client1.tcp.conn-43 rcvAck:vector ETV
attr interpolationmode sample-hold
vector 369 scenario.client1.tcp.conn-43 sndWnd:vector ETV
attr interpolationmode sample-hold
vector 370 scenario.client1.tcp.conn-43 unacked:vector ETV
attr interpolationmode sample-hold
vector 371 scenario.client3.tcp.conn-44 rcvSeq:vector ETV
attr interpolationmode sample-hold
vector 372 scenario.client3.tcp.conn-44 rcvAck:vector ETV
attr interpolationmode sample-hold
vector 373 scenario.client3.tcp.conn-44 unacked:vector ETV
attr interpolationmode sample-hold
vector 374 scenario.client3.tcp.conn-44 cwnd:vector ETV
attr interpolationmode sample-hold
vector 375 scenario.client3.tcp.conn-44 ssthresh:vector ETV
attr interpolationmode sample-hold
vector 376 scenario.client3.tcp.conn-44 dupAcks:vector ETV
attr interpolationmode sample-hold
vector 377 scenario.client1.tcp.conn-43 rtt:vector ETV
attr interpolationmode sample-hold
vector 378 scenario.client1.tcp.conn-43 srtt:vector ETV
attr interpolationmode sample-hold
vector 379 scenario.client1.tcp.conn-43 rttvar:vector ETV
attr interpolationmode sample-hold
vector 380 scenario.client1.tcp.conn-43 rto:vector ETV
attr interpolationmode sample-hold
vector 381 scenario.client1.tcp.conn-43 cwnd:vector ETV
attr interpolationmode sample-hold
vector 382 scenario.client1.tcp.conn-43 ssthresh:vector ETV
attr interpolationmode sample-hold
vector 383 scenario.client1.tcp.conn-43 dupAcks:vector ETV
attr interpolationmode sample-hold
vector 384 scenario.client2.tcp.conn-45 tcpRcvQueueBytes:vector ETV
attr interpolationmode sample-hold
vector 385 scenario.client2.tcp.conn-45 rcvAdv:vector ETV
attr interpolationmode sample-hold
vector 386 scenario.client2.tcp.conn-45 rcvWnd:vector ETV
attr interpolationmode sample-hold
vector 387 scenario.client2.tcp.conn-45 sndAck:vector ETV
attr interpolationmode sample-hold
vector 388 scenario.client0.tcp.conn-46 rcvAdv:vector ETV
attr interpolationmode sample-hold
vector 389 scenario.client0.tcp.conn-46 sndWnd:vector ETV
attr interpolationmode sample-hold
vector 390 scenario.client0.tcp.conn-46 tcpRcvQueueBytes:vector ETV
attr interpolationmode sample-hold
vector 391 scenario.client0.tcp.conn-46 rcvWnd:vector ETV
attr interpolationmode sample-hold
vector 392 scenario.client0.tcp.conn-46 sndAck:vector ETV
attr interpolationmode sample-hold
vector 393 scenario.client2.tcp.conn-45 rcvSeq:vector ETV
attr interpolationmode sample-hold
vector 394 scenario.client2.tcp.conn-45 rcvAck:vector ETV
attr interpolationmode sample-hold
vector 395 scenario.client2.tcp.conn-45 sndWnd:vector ETV
attr interpolationmode sample-hold
vector 396 scenario.client2.tcp.conn-45 unacked:vector ETV
attr interpolationmode sample-hold
vector 397 scenario.client0.tcp.conn-46 rcvSeq:vector ETV
attr interpolationmode sample-hold
vector 398 scenario.client0.tcp.conn-46 rcvAck:vector ETV
attr interpolationmode sample-hold
vector 399 scenario.client0.tcp.conn-46 unacked:vector ETV
attr interpolationmode sample-hold
vector 400 scenario.client0.tcp.conn-46 cwnd:vector ETV
attr interpolationmode sample-hold
vector 401 scenario.client0.tcp.conn-46 ssthresh:vector ETV
attr interpolationmode sample-hold
vector 402 scenario.client0.tcp.conn-46 dupAcks:vector ETV
attr interpolationmode sample-hold
vector 403 scenario.client2.tcp.conn-45 rtt:vector ETV
attr interpolationmode sample-hold
vector 404 scenario.client2.tcp.conn-45 srtt:vector ETV
attr interpolationmode sample-hold
vector 405 scenario.client2.tcp.conn-45 rttvar:vector ETV
attr interpolationmode sample-hold
vector 406 scenario.client2.tcp.conn-45 rto:vector ETV
attr interpolationmode sample-hold
vector 407 scenario.client2.tcp.conn-45 cwnd:vector ETV
attr interpolationmode sample-hold
vector 408 scenario.client2.tcp.conn-45 ssthresh:vector ETV
attr interpolationmode sample-hold
vector 409 scenario.client2.tcp.conn-45 dupAcks:vector ETV
attr interpolationmode sample-hold
vector 410 scenario.client4.tcp.conn-47 tcpRcvQueueBytes:vector ETV
attr interpolationmode sample-hold
vector 411 scenario.client4.tcp.conn-47 rcvAdv:vector ETV
attr interpolationmode sample-hold
vector 412 scenario.client4.tcp.conn-47 rcvWnd:vector ETV
attr interpolationmode sample-hold
vector 413 scenario.client4.tcp.conn-47 sndAck:vector ETV
attr interpolationmode sample-hold
vector 414 scenario.client4.ppp[2].ppp rcvdPkFromHl:vector(packetBytes) ETV
attr interpolationmode none
attr source packetReceivedFromUpper
attr title "packets received from higher layer, vector(packetBytes)"
vector 415 scenario.client4.ppp[2].ppp.queue packetPushed:vector(packetBytes) ETV
attr interpolationmode none
attr title "packet pushed, vector(packetBytes)"
vector 416 scenario.client4.ppp[2].ppp.queue queueLength:vector ETV
attr interpolationmode sample-hold
attr source "count(packetPushed) - count(packetPopped) - count(packetRemoved) - count(packetDropped)"
attr title "queue length, vector"
vector 417 scenario.client4.ppp[2].ppp.queue packetPopped:vector(packetBytes) ETV
attr interpolationmode none
attr title "packet popped, vector(packetBytes)"
vector 418 scenario.client4.ppp[2].ppp.queue queueingTime:vector ETV
attr interpolationmode none
attr source queueingTime(packetPopped)
attr title "queueing times, vector"
attr unit s
vector 419 scenario.client4.ppp[2].ppp txPk:vector(packetBytes) ETV
attr interpolationmode none
attr source packetSentToLower
attr title "packets transmitted, vector(packetBytes)"
vector 420 scenario.client2.ppp[3].ppp rxPkOk:vector(packetBytes) ETV
attr interpolationmode none
attr source rxPkOk
attr title "packets received OK, vector(packetBytes)"
vector 421 scenario.client2.ppp[3].ppp passedUpPk:vector(packetBytes) ETV
attr interpolationmode none
attr source packetSentToUpper
attr title "packets passed to higher layer, vector(packetBytes)"
vector 422 scenario.client2.tcp.conn-48 rcvAdv:vector ETV
attr interpolationmode sample-hold
vector 423 scenario.client2.tcp.conn-48 sndWnd:vector ETV
attr interpolationmode sample-hold
vector 424 scenario.client2.tcp.conn-48 tcpRcvQueueBytes:vector ETV
attr interpolationmode sample-hold
vector 425 scenario.client2.tcp.conn-48 rcvWnd:vector ETV
attr interpolationmode sample-hold
vector 426 scenario.client2.tcp.conn-48 sndAck:vector ETV
attr interpolationmode sample-hold
vector 427 scenario.client2.ppp[3].ppp rcvdPkFromHl:vector(packetBytes) ETV
attr interpolationmode none
attr source packetReceivedFromUpper
attr title "packets received from higher layer, vector(packetBytes)"
vector 428 scenario.client2.ppp[3].ppp.queue packetPushed:vector(packetBytes) ETV
attr interpolationmode none
attr title "packet pushed, vector(packetBytes)"
vector 429 scenario.client2.ppp[3].ppp.queue queueLength:vector ETV
attr interpolationmode sample-hold
attr source "count(packetPushed) - count(packetPopped) - count(packetRemoved) - count(packetDropped)"
attr title "queue length, vector"
vector 430 scenario.client2.ppp[3].ppp.queue packetPopped:vector(packetBytes) ETV
attr interpolationmode none
attr title "packet popped, vector(packetBytes)"
vector 431 scenario.client2.ppp[3].ppp.queue queueingTime:vector ETV
attr interpolationmode none
attr source queueingTime(packetPopped)
attr title "queueing times, vector"
attr unit s
vector 432 scenario.client2.ppp[3].ppp txPk:vector(packetBytes) ETV
attr interpolationmode none
attr source packetSentToLower
attr title "packets transmitted, vector(packetBytes)"
vector 433 scenario.client4.ppp[2].ppp rxPkOk:vector(packetBytes) ETV
attr interpolationmode none
attr source rxPkOk
attr title "packets received OK, vector(packetBytes)"
vector 434 scenario.client4.ppp[2].ppp passedUpPk:vector(packetBytes) ETV
attr interpolationmode none
attr source packetSentToUpper
attr title "packets passed to higher layer, vector(packetBytes)"
vector 435 scenario.client4.tcp.conn-47 rcvSeq:vector ETV
attr interpolationmode sample-hold
vector 436 scenario.client4.tcp.conn-47 rcvAck:vector ETV
attr interpolationmode sample-hold
vector 437 scenario.client4.tcp.conn-47 sndWnd:vector ETV
attr interpolationmode sample-hold
vector 438 scenario.client4.tcp.conn-47 unacked:vector ETV
attr interpolationmode sample-hold
vector 439 scenario.client2.tcp.conn-48 rcvSeq:vector ETV
attr interpolationmode sample-hold
vector 440 scenario.client2.tcp.conn-48 rcvAck:vector ETV
attr interpolationmode sample-hold
vector 441 scenario.client2.tcp.conn-48 unacked:vector ETV
attr interpolationmode sample-hold
vector 442 scenario.client2.tcp.conn-48 cwnd:vector ETV
attr interpolationmode sample-hold
vector 443 scenario.client2.tcp.conn-48 ssthresh:vector ETV
attr interpolationmode sample-hold
vector 444 scenario.client2.tcp.conn-48 dupAcks:vector ETV
attr interpolationmode sample-hold
vector 445 scenario.client4.tcp.conn-47 rtt:vector ETV
attr interpolationmode sample-hold
vector 446 scenario.client4.tcp.conn-47 srtt:vector ETV
attr interpolationmode sample-hold
vector 447 scenario.client4.tcp.conn-47 rttvar:vector ETV
attr interpolationmode sample-hold
vector 448 scenario.client4.tcp.conn-47 rto:vector ETV
attr interpolationmode sample-hold
vector 449 scenario.client4.tcp.conn-47 cwnd:vector ETV
attr interpolationmode sample-hold
vector 450 scenario.client4.tcp.conn-47 ssthresh:vector ETV
attr interpolationmode sample-hold
vector 451 scenario.client4.tcp.conn-47 dupAcks:vector ETV
attr interpolationmode sample-hold
vector 452 scenario.client4.tcp.conn-49 tcpRcvQueueBytes:vector ETV
attr interpolationmode sample-hold
vector 453 scenario.client4.tcp.conn-49 rcvAdv:vector ETV
attr interpolationmode sample-hold
vector 454 scenario.client4.tcp.conn-49 rcvWnd:vector ETV
attr interpolationmode sample-hold
vector 455 scenario.client4.tcp.conn-49 sndAck:vector ETV
attr interpolationmode sample-hold
vector 456 scenario.client4.ppp[0].ppp rcvdPkFromHl:vector(packetBytes) ETV
attr interpolationmode none
attr source packetReceivedFromUpper
attr title "packets received from higher layer, vector(packetBytes)"
vector 457 scenario.client4.ppp[0].ppp.queue packetPushed:vector(packetBytes) ETV
attr interpolationmode none
attr title "packet pushed, vector(packetBytes)"
vector 458 scenario.client4.ppp[0].ppp.queue queueLength:vector ETV
attr interpolationmode sample-hold
attr source "count(packetPushed) - count(packetPopped) - count(packetRemoved) - count(packetDropped)"
attr title "queue length, vector"
vector 459 scenario.client4.ppp[0].ppp.queue packetPopped:vector(packetBytes) ETV
attr interpolationmode none
attr title "packet popped, vector(packetBytes)"
vector 460 scenario.client4.ppp[0].ppp.queue queueingTime:vector ETV
attr interpolationmode none
attr source queueingTime(packetPopped)
attr title "queueing times, vector"
attr unit s
vector 461 scenario.client4.ppp[0].ppp txPk:vector(packetBytes) ETV
attr interpolationmode none
attr source packetSentToLower
attr title "packets transmitted, vector(packetBytes)"
vector 462 scenario.client0.ppp[3].ppp rxPkOk:vector(packetBytes) ETV
attr interpolationmode none
attr source rxPkOk
attr title "packets received OK, vector(packetBytes)"
vector 463 scenario.client0.ppp[3].ppp passedUpPk:vector(packetBytes) ETV
attr interpolationmode none
attr source packetSentToUpper
attr title "packets passed to higher layer, vector(packetBytes)"
vector 464 scenario.client0.tcp.conn-50 rcvAdv:vector ETV
attr interpolationmode sample-hold
vector 465 scenario.client0.tcp.conn-50 sndWnd:vector ETV
attr interpolationmode sample-hold
vector 466 scenario.client0.tcp.conn-50 tcpRcvQueueBytes:vector ETV
attr interpolationmode sample-hold
vector 467 scenario.client0.tcp.conn-50 rcvWnd:vector ETV
attr interpolationmode sample-hold
vector 468 scenario.client0.tcp.conn-50 sndAck:vector ETV
attr interpolationmode sample-hold
vector 469 scenario.client0.ppp[3].ppp rcvdPkFromHl:vector(packetBytes) ETV
attr interpolationmode none
attr source packetReceivedFromUpper
attr title "packets received from higher layer, vector(packetBytes)"
vector 470 scenario.client0.ppp[3].ppp.queue packetPushed:vector(packetBytes) ETV
attr interpolationmode none
attr title "packet pushed, vector(packetBytes)"
vector 471 scenario.client0.ppp[3].ppp.queue queueLength:vector ETV
attr interpolationmode sample-hold
attr source "count(packetPushed) - count(packetPopped) - count(packetRemoved) - count(packetDropped)"
attr title "queue length, vector"
vector 472 scenario.client0.ppp[3].ppp.queue packetPopped:vector(packetBytes) ETV
attr interpolationmode none
attr title "packet popped, vector(packetBytes)"
vector 473 scenario.client0.ppp[3].ppp.queue queueingTime:vector ETV
attr interpolationmode none
attr source queueingTime(packetPopped)
attr title "queueing times, vector"
attr unit s
vector 474 scenario.client0.ppp[3].ppp txPk:vector(packetBytes) ETV
attr interpolationmode none
attr source packetSentToLower
attr title "packets transmitted, vector(packetBytes)"
vector 475 scenario.client4.ppp[0].ppp rxPkOk:vector(packetBytes) ETV
attr interpolationmode none
attr source rxPkOk
attr title "packets received OK, vector(packetBytes)"
vector 476 scenario.client4.ppp[0].ppp passedUpPk:vector(packetBytes) ETV
attr interpolationmode none
attr source packetSentToUpper
attr title "packets passed to higher layer, vector(packetBytes)"
vector 477 scenario.client4.tcp.conn-49 rcvSeq:vector ETV
attr interpolationmode sample-hold
vector 478 scenario.client4.tcp.conn-49 rcvAck:vector ETV
attr interpolationmode sample-hold
vector 479 scenario.client4.tcp.conn-49 sndWnd:vector ETV
attr interpolationmode sample-hold
vector 480 scenario.client4.tcp.conn-49 unacked:vector ETV
attr interpolationmode sample-hold
vector 481 scenario.client0.tcp.conn-50 rcvSeq:vector ETV
attr interpolationmode sample-hold
vector 482 scenario.client0.tcp.conn-50 rcvAck:vector ETV
attr interpolationmode sample-hold
vector 483 scenario.client0.tcp.conn-50 unacked:vector ETV
attr interpolationmode sample-hold
vector 484 scenario.client0.tcp.conn-50 cwnd:vector ETV
attr interpolationmode sample-hold
vector 485 scenario.client0.tcp.conn-50 ssthresh:vector ETV
attr interpolationmode sample-hold
vector 486 scenario.client0.tcp.conn-50 dupAcks:vector ETV
attr interpolationmode sample-hold
vector 487 scenario.client4.tcp.conn-49 rtt:vector ETV
attr interpolationmode sample-hold
vector 488 scenario.client4.tcp.conn-49 srtt:vector ETV
attr interpolationmode sample-hold
vector 489 scenario.client4.tcp.conn-49 rttvar:vector ETV
attr interpolationmode sample-hold
vector 490 scenario.client4.tcp.conn-49 rto:vector ETV
attr interpolationmode sample-hold
vector 491 scenario.client4.tcp.conn-49 cwnd:vector ETV
attr interpolationmode sample-hold
vector 492 scenario.client4.tcp.conn-49 ssthresh:vector ETV
attr interpolationmode sample-hold
vector 493 scenario.client4.tcp.conn-49 dupAcks:vector ETV
attr interpolationmode sample-hold
vector 494 scenario.client4.tcp.conn-51 tcpRcvQueueBytes:vector ETV
attr interpolationmode sample-hold
vector 495 scenario.client4.tcp.conn-51 rcvAdv:vector ETV
attr interpolationmode sample-hold
vector 496 scenario.client4.tcp.conn-51 rcvWnd:vector ETV
attr interpolationmode sample-hold
vector 497 scenario.client4.tcp.conn-51 sndAck:vector ETV
attr interpolationmode sample-hold
vector 498 scenario.client4.ppp[1].ppp rcvdPkFromHl:vector(packetBytes) ETV
attr interpolationmode none
attr source packetReceivedFromUpper
attr title "packets received from higher layer, vector(packetBytes)"
vector 499 scenario.client4.ppp[1].ppp.queue packetPushed:vector(packetBytes) ETV
attr interpolationmode none
attr title "packet pushed, vector(packetBytes)"
vector 500 scenario.client4.ppp[1].ppp.queue queueLength:vector ETV
attr interpolationmode sample-hold
attr source "count(packetPushed) - count(packetPopped) - count(packetRemoved) - count(packetDropped)"
attr title "queue length, vector"
vector 501 scenario.client4.ppp[1].ppp.queue packetPopped:vector(packetBytes) ETV
attr interpolationmode none
attr title "packet popped, vector(packetBytes)"
vector 502 scenario.client4.ppp[1].ppp.queue queueingTime:vector ETV
attr interpolationmode none
attr source queueingTime(packetPopped)
attr title "queueing times, vector"
attr unit s
vector 503 scenario.client4.ppp[1].ppp txPk:vector(packetBytes) ETV
attr interpolationmode none
attr source packetSentToLower
attr title "packets transmitted, vector(packetBytes)"
vector 504 scenario.client1.ppp[3].ppp rxPkOk:vector(packetBytes) ETV
attr interpolationmode none
attr source rxPkOk
attr title "packets received OK, vector(packetBytes)"
vector 505 scenario.client1.ppp[3].ppp passedUpPk:vector(packetBytes) ETV
attr interpolationmode none
attr source packetSentToUpper
attr title "packets passed to higher layer, vector(packetBytes)"
vector 506 scenario.client1.tcp.conn-52 rcvAdv:vector ETV
attr interpolationmode sample-hold
vector 507 scenario.client1.tcp.conn-52 sndWnd:vector ETV
attr interpolationmode sample-hold
vector 508 scenario.client1.tcp.conn-52 tcpRcvQueueBytes:vector ETV
attr interpolationmode sample-hold
vector 509 scenario.client1.tcp.conn-52 rcvWnd:vector ETV
attr interpolationmode sample-hold
vector 510 scenario.client1.tcp.conn-52 sndAck:vector ETV
attr interpolationmode sample-hold
vector 511 scenario.client1.ppp[3].ppp rcvdPkFromHl:vector(packetBytes) ETV
attr interpolationmode none
attr source packetReceivedFromUpper
attr title "packets received from higher layer, vector(packetBytes)"
vector 512 scenario.client1.ppp[3].ppp.queue packetPushed:vector(packetBytes) ETV
attr interpolationmode none
attr title "packet pushed, vector(packetBytes)"
vector 513 scenario.client1.ppp[3].ppp.queue queueLength:vector ETV
attr interpolationmode sample-hold
attr source "count(packetPushed) - count(packetPopped) - count(packetRemoved) - count(packetDropped)"
attr title "queue length, vector"
vector 514 scenario.client1.ppp[3].ppp.queue packetPopped:vector(packetBytes) ETV
attr interpolationmode none
attr title "packet popped, vector(packetBytes)"
vector 515 scenario.client1.ppp[3].ppp.queue queueingTime:vector ETV
attr interpolationmode none
attr source queueingTime(packetPopped)
attr title "queueing times, vector"
attr unit s
vector 516 scenario.client1.ppp[3].ppp txPk:vector(packetBytes) ETV
attr interpolationmode none
attr source packetSentToLower
attr title "packets transmitted, vector(packetBytes)"
vector 517 scenario.client4.ppp[1].ppp rxPkOk:vector(packetBytes) ETV
attr interpolationmode none
attr source rxPkOk
attr title "packets received OK, vector(packetBytes)"
vector 518 scenario.client4.ppp[1].ppp passedUpPk:vector(packetBytes) ETV
attr interpolationmode none
attr source packetSentToUpper
attr title "packets passed to higher layer, vector(packetBytes)"
vector 519 scenario.client4.tcp.conn-51 rcvSeq:vector ETV
attr interpolationmode sample-hold
vector 520 scenario.client4.tcp.conn-51 rcvAck:vector ETV
attr interpolationmode sample-hold
vector 521 scenario.client4.tcp.conn-51 sndWnd:vector ETV
attr interpolationmode sample-hold
vector 522 scenario.client4.tcp.conn-51 unacked:vector ETV
attr interpolationmode sample-hold
vector 523 scenario.client1.tcp.conn-52 rcvSeq:vector ETV
attr interpolationmode sample-hold
vector 524 scenario.client1.tcp.conn-52 rcvAck:vector ETV
attr interpolationmode sample-hold
vector 525 scenario.client1.tcp.conn-52 unacked:vector ETV
attr interpolationmode sample-hold
vector 526 scenario.client1.tcp.conn-52 cwnd:vector ETV
attr interpolationmode sample-hold
vector 527 scenario.client1.tcp.conn-52 ssthresh:vector ETV
attr interpolationmode sample-hold
vector 528 scenario.client1.tcp.conn-52 dupAcks:vector ETV
attr interpolationmode sample-hold
vector 529 scenario.client4.tcp.conn-51 rtt:vector ETV
attr interpolationmode sample-hold
vector 530 scenario.client4.tcp.conn-51 srtt:vector ETV
attr interpolationmode sample-hold
vector 531 scenario.client4.tcp.conn-51 rttvar:vector ETV
attr interpolationmode sample-hold
vector 532 scenario.client4.tcp.conn-51 rto:vector ETV
attr interpolationmode sample-hold
vector 533 scenario.client4.tcp.conn-51 cwnd:vector ETV
attr interpolationmode sample-hold
vector 534 scenario.client4.tcp.conn-51 ssthresh:vector ETV
attr interpolationmode sample-hold
vector 535 scenario.client4.tcp.conn-51 dupAcks:vector ETV
attr interpolationmode sample-hold
vector 536 scenario.client2.tcp.conn-53 tcpRcvQueueBytes:vector ETV
attr interpolationmode sample-hold
vector 537 scenario.client2.tcp.conn-53 rcvAdv:vector ETV
attr interpolationmode sample-hold
vector 538 scenario.client2.tcp.conn-53 rcvWnd:vector ETV
attr interpolationmode sample-hold
vector 539 scenario.client2.tcp.conn-53 sndAck:vector ETV
attr interpolationmode sample-hold
vector 540 scenario.client3.tcp.conn-54 rcvAdv:vector ETV
attr interpolationmode sample-hold
vector 541 scenario.client3.tcp.conn-54 sndWnd:vector ETV
attr interpolationmode sample-hold
vector 542 scenario.client3.tcp.conn-54 tcpRcvQueueBytes:vector ETV
attr interpolationmode sample-hold
vector 543 scenario.client3.tcp.conn-54 rcvWnd:vector ETV
attr interpolationmode sample-hold
vector 544 scenario.client3.tcp.conn-54 sndAck:vector ETV
attr interpolationmode sample-hold
vector 545 scenario.client2.tcp.conn-53 rcvSeq:vector ETV
attr interpolationmode sample-hold
vector 546 scenario.client2.tcp.conn-53 rcvAck:vector ETV
attr interpolationmode sample-hold
vector 547 scenario.client2.tcp.conn-53 sndWnd:vector ETV
attr interpolationmode sample-hold
vector 548 scenario.client2.tcp.conn-53 unacked:vector ETV
attr interpolationmode sample-hold
vector 549 scenario.client3.tcp.conn-54 rcvSeq:vector ETV
attr interpolationmode sample-hold
vector 550 scenario.client3.tcp.conn-54 rcvAck:vector ETV
attr interpolationmode sample-hold
vector 551 scenario.client3.tcp.conn-54 unacked:vector ETV
attr interpolationmode sample-hold
vector 552 scenario.client3.tcp.conn-54 cwnd:vector ETV
attr interpolationmode sample-hold
vector 553 scenario.client3.tcp.conn-54 ssthresh:vector ETV
attr interpolationmode sample-hold
vector 554 scenario.client3.tcp.conn-54 dupAcks:vector ETV
attr interpolationmode sample-hold
vector 555 scenario.client2.tcp.conn-53 rtt:vector ETV
attr interpolationmode sample-hold
vector 556 scenario.client2.tcp.conn-53 srtt:vector ETV
attr interpolationmode sample-hold
vector 557 scenario.client2.tcp.conn-53 rttvar:vector ETV
attr interpolationmode sample-hold
vector 558 scenario.client2.tcp.conn-53 rto:vector ETV
attr interpolationmode sample-hold
vector 559 scenario.client2.tcp.conn-53 cwnd:vector ETV
attr interpolationmode sample-hold
vector 560 scenario.client2.tcp.conn-53 ssthresh:vector ETV
attr interpolationmode sample-hold
vector 561 scenario.client2.tcp.conn-53 dupAcks:vector ETV
attr interpolationmode sample-hold
vector 562 scenario.client0.tcp.conn-55 tcpRcvQueueBytes:vector ETV
attr interpolationmode sample-hold
vector 563 scenario.client0.tcp.conn-55 rcvAdv:vector ETV
attr interpolationmode sample-hold
vector 564 scenario.client0.tcp.conn-55 rcvWnd:vector ETV
attr interpolationmode sample-hold
vector 565 scenario.client0.tcp.conn-55 sndAck:vector ETV
attr interpolationmode sample-hold
vector 566 scenario.client4.tcp.conn-4 rcvSeq:vector ETV
attr interpolationmode sample-hold
vector 567 scenario.client4.tcp.conn-4 rcvAck:vector ETV
attr interpolationmode sample-hold
vector 568 scenario.client4.tcp.conn-56 rcvAdv:vector ETV
attr interpolationmode sample-hold
vector 569 scenario.client4.tcp.conn-56 sndWnd:vector ETV
attr interpolationmode sample-hold
vector 570 scenario.client4.tcp.conn-56 tcpRcvQueueBytes:vector ETV
attr interpolationmode sample-hold
vector 571 scenario.client4.tcp.conn-56 rcvWnd:vector ETV
attr interpolationmode sample-hold
vector 572 scenario.client4.tcp.conn-56 sndAck:vector ETV
attr interpolationmode sample-hold
vector 573 scenario.client0.tcp.conn-55 rcvSeq:vector ETV
attr interpolationmode sample-hold
vector 574 scenario.client0.tcp.conn-55 rcvAck:vector ETV
attr interpolationmode sample-hold
vector 575 scenario.client0.tcp.conn-55 sndWnd:vector ETV
attr interpolationmode sample-hold
vector 576 scenario.client0.tcp.conn-55 unacked:vector ETV
attr interpolationmode sample-hold
vector 577 scenario.client4.tcp.conn-56 rcvSeq:vector ETV
attr interpolationmode sample-hold
vector 578 scenario.client4.tcp.conn-56 rcvAck:vector ETV
attr interpolationmode sample-hold
vector 579 scenario.client4.tcp.conn-56 unacked:vector ETV
attr interpolationmode sample-hold
vector 580 scenario.client4.tcp.conn-56 cwnd:vector ETV
attr interpolationmode sample-hold
vector 581 scenario.client4.tcp.conn-56 ssthresh:vector ETV
attr interpolationmode sample-hold
vector 582 scenario.client4.tcp.conn-56 dupAcks:vector ETV
attr interpolationmode sample-hold
vector 583 scenario.client0.tcp.conn-55 rtt:vector ETV
attr interpolationmode sample-hold
vector 584 scenario.client0.tcp.conn-55 srtt:vector ETV
attr interpolationmode sample-hold
vector 585 scenario.client0.tcp.conn-55 rttvar:vector ETV
attr interpolationmode sample-hold
vector 586 scenario.client0.tcp.conn-55 rto:vector ETV
attr interpolationmode sample-hold
vector 587 scenario.client0.tcp.conn-55 cwnd:vector ETV
attr interpolationmode sample-hold
vector 588 scenario.client0.tcp.conn-55 ssthresh:vector ETV
attr interpolationmode sample-hold
vector 589 scenario.client0.tcp.conn-55 dupAcks:vector ETV
attr interpolationmode sample-hold
vector 590 scenario.client2.tcp.conn-57 tcpRcvQueueBytes:vector ETV
attr interpolationmode sample-hold
vector 591 scenario.client2.tcp.conn-57 rcvAdv:vector ETV
attr interpolationmode sample-hold
vector 592 scenario.client2.tcp.conn-57 rcvWnd:vector ETV
attr interpolationmode sample-hold
vector 593 scenario.client2.tcp.conn-57 sndAck:vector ETV
attr interpolationmode sample-hold
vector 594 scenario.client4.tcp.conn-58 rcvAdv:vector ETV
attr interpolationmode sample-hold
vector 595 scenario.client4.tcp.conn-58 sndWnd:vector ETV
attr interpolationmode sample-hold
vector 596 scenario.client4.tcp.conn-58 tcpRcvQueueBytes:vector ETV
attr interpolationmode sample-hold
vector 597 scenario.client4.tcp.conn-58 rcvWnd:vector ETV
attr interpolationmode sample-hold
vector 598 scenario.client4.tcp.conn-58 sndAck:vector ETV
attr interpolationmode sample-hold
vector 599 scenario.client2.tcp.conn-57 rcvSeq:vector ETV
attr interpolationmode sample-hold
vector 600 scenario.client2.tcp.conn-57 rcvAck:vector ETV
attr interpolationmode sample-hold
vector 601 scenario.client2.tcp.conn-57 sndWnd:vector ETV
attr interpolationmode sample-hold
vector 602 scenario.client2.tcp.conn-57 unacked:vector ETV
attr interpolationmode sample-hold
vector 603 scenario.client4.tcp.conn-58 rcvSeq:vector ETV
attr interpolationmode sample-hold
vector 604 scenario.client4.tcp.conn-58 rcvAck:vector ETV
attr interpolationmode sample-hold
vector 605 scenario.client4.tcp.conn-58 unacked:vector ETV
attr interpolationmode sample-hold
vector 606 scenario.client4.tcp.conn-58 cwnd:vector ETV
attr interpolationmode sample-hold
vector 607 scenario.client4.tcp.conn-58 ssthresh:vector ETV
attr interpolationmode sample-hold
vector 608 scenario.client4.tcp.conn-58 dupAcks:vector ETV
attr interpolationmode sample-hold
vector 609 scenario.client2.tcp.conn-57 rtt:vector ETV
attr interpolationmode sample-hold
vector 610 scenario.client2.tcp.conn-57 srtt:vector ETV
attr interpolationmode sample-hold
vector 611 scenario.client2.tcp.conn-57 rttvar:vector ETV
attr interpolationmode sample-hold
vector 612 scenario.client2.tcp.conn-57 rto:vector ETV
attr interpolationmode sample-hold
vector 613 scenario.client2.tcp.conn-57 cwnd:vector ETV
attr interpolationmode sample-hold
vector 614 scenario.client2.tcp.conn-57 ssthresh:vector ETV
attr interpolationmode sample-hold
vector 615 scenario.client2.tcp.conn-57 dupAcks:vector ETV
attr interpolationmode sample-hold
vector 616 scenario.client1.tcp.conn-59 tcpRcvQueueBytes:vector ETV
attr interpolationmode sample-hold
vector 617 scenario.client1.tcp.conn-59 rcvAdv:vector ETV
attr interpolationmode sample-hold
vector 618 scenario.client1.tcp.conn-59 rcvWnd:vector ETV
attr interpolationmode sample-hold
vector 619 scenario.client1.tcp.conn-59 sndAck:vector ETV
attr interpolationmode sample-hold
vector 620 scenario.client4.tcp.conn-60 rcvAdv:vector ETV
attr interpolationmode sample-hold
vector 621 scenario.client4.tcp.conn-60 sndWnd:vector ETV
attr interpolationmode sample-hold
vector 622 scenario.client4.tcp.conn-60 tcpRcvQueueBytes:vector ETV
attr interpolationmode sample-hold
vector 623 scenario.client4.tcp.conn-60 rcvWnd:vector ETV
attr interpolationmode sample-hold
vector 624 scenario.client4.tcp.conn-60 sndAck:vector ETV
attr interpolationmode sample-hold
vector 625 scenario.client1.tcp.conn-59 rcvSeq:vector ETV
attr interpolationmode sample-hold
vector 626 scenario.client1.tcp.conn-59 rcvAck:vector ETV
attr interpolationmode sample-hold
vector 627 scenario.client1.tcp.conn-59 sndWnd:vector ETV
attr interpolationmode sample-hold
vector 628 scenario.client1.tcp.conn-59 unacked:vector ETV
attr interpolationmode sample-hold
vector 629 scenario.client4.tcp.conn-60 rcvSeq:vector ETV
attr interpolationmode sample-hold
vector 630 scenario.client4.tcp.conn-60 rcvAck:vector ETV
attr interpolationmode sample-hold
vector 631 scenario.client4.tcp.conn-60 unacked:vector ETV
attr interpolationmode sample-hold
vector 632 scenario.client4.tcp.conn-60 cwnd:vector ETV
attr interpolationmode sample-hold
vector 633 scenario.client4.tcp.conn-60 ssthresh:vector ETV
attr interpolationmode sample-hold
vector 634 scenario.client4.tcp.conn-60 dupAcks:vector ETV
attr interpolationmode sample-hold
vector 635 scenario.client1.tcp.conn-59 rtt:vector ETV
attr interpolationmode sample-hold
vector 636 scenario.client1.tcp.conn-59 srtt:vector ETV
attr interpolationmode sample-hold
vector 637 scenario.client1.tcp.conn-59 rttvar:vector ETV
attr interpolationmode sample-hold
vector 638 scenario.client1.tcp.conn-59 rto:vector ETV
attr interpolationmode sample-hold
vector 639 scenario.client1.tcp.conn-59 cwnd:vector ETV
attr interpolationmode sample-hold
vector 640 scenario.client1.tcp.conn-59 ssthresh:vector ETV
attr interpolationmode sample-hold
vector 641 scenario.client1.tcp.conn-59 dupAcks:vector ETV
attr interpolationmode sample-hold
0	0	0	0
0	83	1.529665591479	1
0	84	1.530073591479	0
0	98	1.531457591479	1
0	101	1.531833591479	0
0	239	1.947416608173	1
0	240	1.947824608173	0
0	252	1.949232608173	1
0	253	1.949616608173	0
0	632	3.733419782952	1
0	633	3.733795782952	0
0	640	3.747550889615	1
0	641	3.747934889615	0
0	731	4.430340465347	1
0	732	4.430724465347	0
0	792	4.581862791345	1
0	797	4.582254791345	0
0	855	4.634813442061	1
0	856	4.635189442061	0
0	870	4.747944519914	1
0	871	4.748320519914	0
0	936	4.82589575634	1
0	940	4.82627175634	0
0	964	4.849663748772	1
0	965	4.850047748772	0
0	1087	5.130164259042	1
0	1088	5.130540259042	0
0	1260	5.567627388532	1
0	1261	5.568011388532	0
1	0	0	0
1	41	1.46241645558	1
1	43	1.46282445558	0
1	58	1.46423245558	1
1	59	1.46461645558	0
1	341	2.228777502853	1
1	342	2.229185502853	0
1	356	2.230569502853	1
1	359	2.230945502853	0
1	662	3.827752495743	1
1	663	3.828128495743	0
1	670	3.900540177618	1
1	671	3.900924177618	0
1	708	4.369821224281	1
1	709	4.370197224281	0
1	746	4.464551714469	1
1	747	4.464935714469	0
1	787	4.581862791345	1
1	796	4.582238791345	0
1	796	4.582238791345	1
1	800	4.582630791345	0
1	979	4.854119451156	1
1	980	4.854503451156	0
1	1033	4.856271451156	1
1	1034	4.856647451156	0
1	1057	4.884316924589	1
1	1058	4.884692924589	0
1	1110	5.21886186224	1
1	1111	5.21924586224	0
2	0	0	0
2	19	1.460397730522	1
2	20	1.460805730522	0
2	34	1.462189730522	1
2	42	1.462565730522	0
2	174	1.67777248146	1
2	175	1.67818048146	0
2	187	1.67958848146	1
2	188	1.67997248146	0
2	794	4.581862791345	1
2	798	4.582254791345	0
2	1155	5.283011769159	1
2	1156	5.283395769159	0
2	1170	5.289923766473	1
2	1171	5.290307766473	0
3	0	0	0
3	405	2.490186847621	1
3	406	2.490594847621	0
3	420	2.491978847621	1
3	423	2.492354847621	0
3	495	2.895403024384	1
3	496	2.895811024384	0
3	508	2.897219024384	1
3	509	2.897603024384	0
3	795	4.581862791345	1
3	799	4.582254791345	0
3	878	4.816368054934	1
3	879	4.816752054934	0
3	1290	5.819588202766	1
3	1291	5.819972202766	0
4	0	0	0
4	77	1.528757591479	1
4	78	1.529165591479	0
4	90	1.530573591479	1
4	91	1.530957591479	0
4	245	1.948324608173	1
4	246	1.948732608173	0
4	260	1.950116608173	1
4	263	1.950492608173	0
4	625	3.732535782952	1
4	626	3.732919782952	0
4	647	3.748434889615	1
4	648	3.748810889615	0
4	738	4.431224465347	1
4	739	4.431600465347	0
4	819	4.582754791345	1
4	823	4.583130791345	0
4	848	4.633929442061	1
4	849	4.634313442061	0
4	863	4.747060519914	1
4	864	4.747444519914	0
4	909	4.82500375634	1
4	914	4.82539575634	0
4	971	4.850547748772	1
4	972	4.850923748772	0
4	1080	5.129280259042	1
4	1081	5.129664259042	0
4	1267	5.568511388532	1
4	1268	5.568887388532	0
5	0	0	0
5	142	1.659010589923	1
5	143	1.659418589923	0
5	155	1.660826589923	1
5	156	1.661210589923	0
5	213	1.836736730125	1
5	214	1.837144730125	0
5	228	1.838528730125	1
5	231	1.838904730125	0
5	570	3.439587573717	1
5	571	3.439963573717	0
5	610	3.708944975127	1
5	611	3.709328975127	0
5	692	4.03207287991	1
5	693	4.03244887991	0
5	716	4.408885953185	1
5	717	4.409269953185	0
5	904	4.82500375634	1
5	913	4.82537975634	0
5	913	4.82537975634	1
5	917	4.82577175634	0
5	1022	4.855895451156	1
[...]
469	795	4.581862791345	42
469	878	4.816368054934	41
469	1290	5.819588202766	41
470	405	2.490186847621	44
470	420	2.491978847621	40
470	495	2.895403024384	44
470	508	2.897219024384	41
470	795	4.581862791345	42
470	878	4.816368054934	41
470	1290	5.819588202766	41
471	405	2.490186847621	1
471	405	2.490186847621	0
471	420	2.491978847621	1
471	420	2.491978847621	0
471	495	2.895403024384	1
471	495	2.895403024384	0
471	508	2.897219024384	1
471	508	2.897219024384	0
471	795	4.581862791345	1
471	795	4.581862791345	0
471	878	4.816368054934	1
471	878	4.816368054934	0
471	1290	5.819588202766	1
471	1290	5.819588202766	0
472	405	2.490186847621	44
472	420	2.491978847621	40
472	495	2.895403024384	44
472	508	2.897219024384	41
472	795	4.581862791345	42
472	878	4.816368054934	41
472	1290	5.819588202766	41
473	405	2.490186847621	0
473	420	2.491978847621	0
473	495	2.895403024384	0
473	508	2.897219024384	0
473	795	4.581862791345	0
473	878	4.816368054934	0
473	1290	5.819588202766	0
474	405	2.490186847621	51
474	420	2.491978847621	47
474	495	2.895403024384	51
474	508	2.897219024384	48
474	795	4.581862791345	49
474	878	4.816368054934	48
474	1290	5.819588202766	48
475	407	2.491094847621	51
475	424	2.492854847621	47
475	497	2.896311024384	51
475	510	2.898103024384	48
475	806	4.582754791345	49
475	880	4.817252054934	48
475	1292	5.820472202766	48
476	407	2.491094847621	44
476	424	2.492854847621	40
476	497	2.896311024384	44
476	510	2.898103024384	41
476	806	4.582754791345	42
476	880	4.817252054934	41
476	1292	5.820472202766	41
477	409	2.491094847621	622546
477	426	2.492854847621	622547
478	409	2.491094847621	622320
478	426	2.492854847621	622321
479	409	2.491094847621	7504
479	426	2.492854847621	7503
480	409	2.491094847621	1
480	426	2.492854847621	0
481	416	2.491978847621	622320
482	416	2.491978847621	622547
483	416	2.491978847621	0
484	416	2.491978847621	1072
485	416	2.491978847621	4294967295
486	416	2.491978847621	0
487	426	2.492854847621	0.00176
488	426	2.492854847621	0.00022
489	426	2.492854847621	0.65647
490	426	2.492854847621	2.6261
491	426	2.492854847621	1072
492	426	2.492854847621	4294967295
493	426	2.492854847621	0
494	428	2.581749931333	0
494	441	2.583565931333	0
495	428	2.581749931333	7504
495	441	2.583565931333	653169
495	441	2.583565931333	653169
496	428	2.581749931333	7504
496	441	2.583565931333	7504
497	428	2.581749931333	0
497	441	2.583565931333	645665
498	431	2.581749931333	44
498	444	2.583565931333	41
498	585	3.558654235542	44
498	600	3.560446235542	40
498	938	4.82589575634	40
498	1102	5.13433936839	40
498	1282	5.575459830806	40
499	431	2.581749931333	44
499	444	2.583565931333	41
499	585	3.558654235542	44
499	600	3.560446235542	40
499	938	4.82589575634	40
499	1102	5.13433936839	40
499	1282	5.575459830806	40
500	431	2.581749931333	1
500	431	2.581749931333	0
500	444	2.583565931333	1
500	444	2.583565931333	0
500	585	3.558654235542	1
500	585	3.558654235542	0
500	600	3.560446235542	1
500	600	3.560446235542	0
500	938	4.82589575634	1
500	938	4.82589575634	0
500	1102	5.13433936839	1
500	1102	5.13433936839	0
500	1282	5.575459830806	1
500	1282	5.575459830806	0
501	431	2.581749931333	44
501	444	2.583565931333	41
501	585	3.558654235542	44
501	600	3.560446235542	40
501	938	4.82589575634	40
501	1102	5.13433936839	40
501	1282	5.575459830806	40
502	431	2.581749931333	0
502	444	2.583565931333	0
502	585	3.558654235542	0
502	600	3.560446235542	0
502	938	4.82589575634	0
502	1102	5.13433936839	0
502	1282	5.575459830806	0
503	431	2.581749931333	51
503	444	2.583565931333	48
503	585	3.558654235542	51
503	600	3.560446235542	47
503	938	4.82589575634	47
503	1102	5.13433936839	47
503	1282	5.575459830806	47
504	433	2.582657931333	51
504	446	2.584449931333	48
504	587	3.559562235542	51
504	604	3.561322235542	47
504	951	4.82677175634	47
504	1104	5.13521536839	47
504	1284	5.576335830806	47
505	433	2.582657931333	44
505	446	2.584449931333	41
505	587	3.559562235542	44
505	604	3.561322235542	40
505	951	4.82677175634	40
505	1104	5.13521536839	40
505	1284	5.576335830806	40
506	435	2.582657931333	652942
506	435	2.582657931333	652942
506	448	2.584449931333	652942
507	435	2.582657931333	7504
507	448	2.584449931333	7504
508	435	2.582657931333	0
508	448	2.584449931333	0
508	448	2.584449931333	1
509	435	2.582657931333	7504
509	448	2.584449931333	7503
510	435	2.582657931333	645438
510	448	2.584449931333	645439
511	437	2.582657931333	44
511	452	2.584449931333	40
511	579	3.557746235542	44
511	592	3.559562235542	41
511	912	4.82500375634	42
511	1095	5.13345536839	41
511	1275	5.574575830806	41
512	437	2.582657931333	44
512	452	2.584449931333	40
512	579	3.557746235542	44
512	592	3.559562235542	41
512	912	4.82500375634	42
512	1095	5.13345536839	41
512	1275	5.574575830806	41
513	437	2.582657931333	1
513	437	2.582657931333	0
513	452	2.584449931333	1
513	452	2.584449931333	0
513	579	3.557746235542	1
513	579	3.557746235542	0
513	592	3.559562235542	1
513	592	3.559562235542	0
513	912	4.82500375634	1
513	912	4.82500375634	0
513	1095	5.13345536839	1
513	1095	5.13345536839	0
513	1275	5.574575830806	1
513	1275	5.574575830806	0
514	437	2.582657931333	44
514	452	2.584449931333	40
514	579	3.557746235542	44
514	592	3.559562235542	41
514	912	4.82500375634	42
514	1095	5.13345536839	41
514	1275	5.574575830806	41
515	437	2.582657931333	0
515	452	2.584449931333	0
515	579	3.557746235542	0
515	592	3.559562235542	0
515	912	4.82500375634	0
515	1095	5.13345536839	0
515	1275	5.574575830806	0
516	437	2.582657931333	51
516	452	2.584449931333	47
516	579	3.557746235542	51
516	592	3.559562235542	48
516	912	4.82500375634	49
516	1095	5.13345536839	48
516	1275	5.574575830806	48
517	439	2.583565931333	51
517	456	2.585325931333	47
517	581	3.558654235542	51
517	594	3.560446235542	48
517	923	4.82589575634	49
517	1097	5.13433936839	48
517	1277	5.575459830806	48
518	439	2.583565931333	44
518	456	2.585325931333	40
518	581	3.558654235542	44
518	594	3.560446235542	41
518	923	4.82589575634	42
518	1097	5.13433936839	41
518	1277	5.575459830806	41
519	441	2.583565931333	645664
519	458	2.585325931333	645665
520	441	2.583565931333	645438
520	458	2.585325931333	645439
521	441	2.583565931333	7504
521	458	2.585325931333	7503
522	441	2.583565931333	1
522	458	2.585325931333	0
523	448	2.584449931333	645438
524	448	2.584449931333	645665
525	448	2.584449931333	0
526	448	2.584449931333	1072
527	448	2.584449931333	4294967295
528	448	2.584449931333	0
529	458	2.585325931333	0.00176
530	458	2.585325931333	0.00022
531	458	2.585325931333	0.65647
532	458	2.585325931333	2.6261
533	458	2.585325931333	1072
534	458	2.585325931333	4294967295
535	458	2.585325931333	0
536	460	2.712807730339	0
536	473	2.714623730339	0
536	988	4.855003451156	0
536	1183	5.418758099307	0
536	1198	5.45719571691	0
537	460	2.712807730339	7504
537	473	2.714623730339	685933
537	473	2.714623730339	685933
537	988	4.855003451156	685933
537	1183	5.418758099307	685933
537	1198	5.45719571691	685933
538	460	2.712807730339	7504
538	473	2.714623730339	7504
538	988	4.855003451156	7504
538	1183	5.418758099307	7504
538	1198	5.45719571691	7504
539	460	2.712807730339	0
539	473	2.714623730339	678429
539	988	4.855003451156	678429
539	1183	5.418758099307	678429
539	1198	5.45719571691	678429
540	467	2.713715730339	685706
540	467	2.713715730339	685706
540	480	2.715507730339	685706
540	1014	4.855895451156	685709
540	1189	5.419642099307	685710
540	1204	5.45807971691	685711
541	467	2.713715730339	7504
541	480	2.715507730339	7504
542	467	2.713715730339	0
542	480	2.715507730339	0
542	480	2.715507730339	1
542	1014	4.855895451156	0
542	1014	4.855895451156	0
542	1189	5.419642099307	0
542	1189	5.419642099307	0
542	1204	5.45807971691	0
542	1204	5.45807971691	0
543	467	2.713715730339	7504
543	480	2.715507730339	7503
543	1014	4.855895451156	7504
543	1189	5.419642099307	7504
543	1204	5.45807971691	7504
544	467	2.713715730339	678202
544	480	2.715507730339	678203
544	1014	4.855895451156	678205
544	1189	5.419642099307	678206
544	1204	5.45807971691	678207
545	473	2.714623730339	678428
545	490	2.716383730339	678429
545	1042	4.856771451156	678429
545	1196	5.420518099307	678429
545	1211	5.45895571691	678429
546	473	2.714623730339	678202
546	490	2.716383730339	678203
546	1042	4.856771451156	678205
546	1196	5.420518099307	678206
546	1211	5.45895571691	678207
547	473	2.714623730339	7504
547	490	2.716383730339	7503
547	1042	4.856771451156	7504
547	1196	5.420518099307	7504
547	1211	5.45895571691	7504
548	473	2.714623730339	1
548	490	2.716383730339	0
548	988	4.855003451156	2
548	1042	4.856771451156	0
548	1183	5.418758099307	1
548	1196	5.420518099307	0
548	1198	5.45719571691	1
548	1211	5.45895571691	0
549	480	2.715507730339	678202
549	1014	4.855895451156	678203
549	1189	5.419642099307	678205
549	1204	5.45807971691	678206
550	480	2.715507730339	678429
550	1014	4.855895451156	678429
550	1189	5.419642099307	678429
550	1204	5.45807971691	678429
551	480	2.715507730339	0
552	480	2.715507730339	1072
553	480	2.715507730339	4294967295
554	480	2.715507730339	0
554	1014	4.855895451156	0
554	1189	5.419642099307	0
554	1204	5.45807971691	0
555	490	2.716383730339	0.00176
555	1042	4.856771451156	0.001768
555	1196	5.420518099307	0.00176
555	1211	5.45895571691	0.00176
556	490	2.716383730339	0.00022
556	1042	4.856771451156	0.0004135
556	1196	5.420518099307	0.0005818125
556	1211	5.45895571691	0.000729085938
557	490	2.716383730339	0.65647
557	1042	4.856771451156	0.57460475
557	1196	5.420518099307	0.50294746875
557	1211	5.45895571691	0.440226308594
558	490	2.716383730339	2.6261
558	1042	4.856771451156	2.2988325
558	1196	5.420518099307	2.0123716875
558	1211	5.45895571691	1.761634320314
559	490	2.716383730339	1072
559	1042	4.856771451156	1608
559	1196	5.420518099307	2144
559	1211	5.45895571691	2680
560	490	2.716383730339	4294967295
560	1042	4.856771451156	4294967295
560	1196	5.420518099307	4294967295
560	1211	5.45895571691	4294967295
561	490	2.716383730339	0
561	1042	4.856771451156	0
561	1196	5.420518099307	0
561	1211	5.45895571691	0
562	492	2.895403024384	0
562	505	2.897219024384	0
562	786	4.581862791345	0
562	876	4.816368054934	0
562	1288	5.819588202766	0
563	492	2.895403024384	7504
563	505	2.897219024384	731582
563	505	2.897219024384	731582
563	786	4.581862791345	731582
563	876	4.816368054934	731582
563	1288	5.819588202766	731582
564	492	2.895403024384	7504
564	505	2.897219024384	7504
564	786	4.581862791345	7504
564	876	4.816368054934	7504
564	1288	5.819588202766	7504
565	492	2.895403024384	0
565	505	2.897219024384	724078
565	786	4.581862791345	724078
565	876	4.816368054934	724078
565	1288	5.819588202766	724078
566	499	2.896311024384	723850
566	536	3.084823857418	770978
566	583	3.558654235542	889436
567	499	2.896311024384	0
567	536	3.084823857418	0
567	583	3.558654235542	0
568	499	2.896311024384	731355
568	499	2.896311024384	731355
568	512	2.898103024384	731355
568	812	4.582754791345	731358
568	882	4.817252054934	731359
568	1294	5.820472202766	731360
569	499	2.896311024384	7504
569	512	2.898103024384	7504
570	499	2.896311024384	0
570	512	2.898103024384	0
570	512	2.898103024384	1
570	812	4.582754791345	0
570	812	4.582754791345	0
570	882	4.817252054934	0
570	882	4.817252054934	0
570	1294	5.820472202766	0
570	1294	5.820472202766	0
571	499	2.896311024384	7504
571	512	2.898103024384	7503
571	812	4.582754791345	7504
571	882	4.817252054934	7504
571	1294	5.820472202766	7504
572	499	2.896311024384	723851
572	512	2.898103024384	723852
572	812	4.582754791345	723854
572	882	4.817252054934	723855
572	1294	5.820472202766	723856
573	505	2.897219024384	724077
573	522	2.898979024384	724078
573	840	4.583630791345	724078
573	889	4.818128054934	724078
573	1301	5.821348202766	724078
574	505	2.897219024384	723851
574	522	2.898979024384	723852
574	840	4.583630791345	723854
574	889	4.818128054934	723855
574	1301	5.821348202766	723856
575	505	2.897219024384	7504
575	522	2.898979024384	7503
575	840	4.583630791345	7504
575	889	4.818128054934	7504
575	1301	5.821348202766	7504
576	505	2.897219024384	1
576	522	2.898979024384	0
576	786	4.581862791345	2
576	840	4.583630791345	0
576	876	4.816368054934	1
576	889	4.818128054934	0
576	1288	5.819588202766	1
576	1301	5.821348202766	0
577	512	2.898103024384	723851
577	812	4.582754791345	723852
577	882	4.817252054934	723854
577	1294	5.820472202766	723855
578	512	2.898103024384	724078
578	812	4.582754791345	724078
578	882	4.817252054934	724078
578	1294	5.820472202766	724078
579	512	2.898103024384	0
580	512	2.898103024384	1072
581	512	2.898103024384	4294967295
582	512	2.898103024384	0
582	812	4.582754791345	0
582	882	4.817252054934	0
582	1294	5.820472202766	0
583	522	2.898979024384	0.00176
583	840	4.583630791345	0.001768
583	889	4.818128054934	0.00176
583	1301	5.821348202766	0.00176
584	522	2.898979024384	0.00022
584	840	4.583630791345	0.0004135
584	889	4.818128054934	0.0005818125
584	1301	5.821348202766	0.000729085938
585	522	2.898979024384	0.65647
585	840	4.583630791345	0.57460475
585	889	4.818128054934	0.50294746875
585	1301	5.821348202766	0.440226308594
586	522	2.898979024384	2.6261
586	840	4.583630791345	2.2988325
586	889	4.818128054934	2.0123716875
586	1301	5.821348202766	1.761634320314
587	522	2.898979024384	1072
587	840	4.583630791345	1608
587	889	4.818128054934	2144
587	1301	5.821348202766	2680
588	522	2.898979024384	4294967295
588	840	4.583630791345	4294967295
588	889	4.818128054934	4294967295
588	1301	5.821348202766	4294967295
589	522	2.898979024384	0
589	840	4.583630791345	0
589	889	4.818128054934	0
589	1301	5.821348202766	0
590	529	3.083915857418	0
590	542	3.085731857418	0
590	759	4.53468221247	0
590	989	4.855003451156	0
590	1063	4.964490085757	0
591	529	3.083915857418	7504
591	542	3.085731857418	778710
591	542	3.085731857418	778710
591	759	4.53468221247	778710
591	989	4.855003451156	778710
591	1063	4.964490085757	778710
592	529	3.083915857418	7504
592	542	3.085731857418	7504
592	759	4.53468221247	7504
592	989	4.855003451156	7504
592	1063	4.964490085757	7504
593	529	3.083915857418	0
593	542	3.085731857418	771206
593	759	4.53468221247	771206
593	989	4.855003451156	771206
593	1063	4.964490085757	771206
594	536	3.084823857418	778483
594	536	3.084823857418	778483
594	549	3.086615857418	778483
594	765	4.53556621247	778485
594	1015	4.855895451156	778487
594	1069	4.965374085757	778488
595	536	3.084823857418	7504
595	549	3.086615857418	7504
596	536	3.084823857418	0
596	549	3.086615857418	0
596	549	3.086615857418	1
596	765	4.53556621247	0
596	765	4.53556621247	0
596	1015	4.855895451156	0
596	1015	4.855895451156	0
596	1069	4.965374085757	0
596	1069	4.965374085757	0
597	536	3.084823857418	7504
597	549	3.086615857418	7503
597	765	4.53556621247	7504
597	1015	4.855895451156	7504
597	1069	4.965374085757	7504
598	536	3.084823857418	770979
598	549	3.086615857418	770980
598	765	4.53556621247	770981
598	1015	4.855895451156	770983
598	1069	4.965374085757	770984
599	542	3.085731857418	771205
599	559	3.087491857418	771206
599	772	4.53644221247	771206
599	1043	4.856771451156	771206
599	1076	4.966250085757	771206
600	542	3.085731857418	770979
600	559	3.087491857418	770980
600	772	4.53644221247	770981
600	1043	4.856771451156	770983
600	1076	4.966250085757	770984
601	542	3.085731857418	7504
601	559	3.087491857418	7503
601	772	4.53644221247	7504
601	1043	4.856771451156	7504
601	1076	4.966250085757	7504
602	542	3.085731857418	1
602	559	3.087491857418	0
602	759	4.53468221247	1
602	772	4.53644221247	0
602	989	4.855003451156	2
602	1043	4.856771451156	0
602	1063	4.964490085757	1
602	1076	4.966250085757	0
603	549	3.086615857418	770979
603	765	4.53556621247	770980
603	1015	4.855895451156	770981
603	1069	4.965374085757	770983
604	549	3.086615857418	771206
604	765	4.53556621247	771206
604	1015	4.855895451156	771206
604	1069	4.965374085757	771206
605	549	3.086615857418	0
606	549	3.086615857418	1072
607	549	3.086615857418	4294967295
608	549	3.086615857418	0
608	765	4.53556621247	0
608	1015	4.855895451156	0
608	1069	4.965374085757	0
609	559	3.087491857418	0.00176
609	772	4.53644221247	0.00176
609	1043	4.856771451156	0.001768
609	1076	4.966250085757	0.00176
610	559	3.087491857418	0.00022
610	772	4.53644221247	0.0004125
610	1043	4.856771451156	0.0005819375
610	1076	4.966250085757	0.000729195313
611	559	3.087491857418	0.65647
611	772	4.53644221247	0.57460375
611	1043	4.856771451156	0.50294771875
611	1076	4.966250085757	0.440226511719
612	559	3.087491857418	2.6261
612	772	4.53644221247	2.2988275
612	1043	4.856771451156	2.0123728125
612	1076	4.966250085757	1.761635242189
613	559	3.087491857418	1072
613	772	4.53644221247	1608
613	1043	4.856771451156	2144
613	1076	4.966250085757	2680
614	559	3.087491857418	4294967295
614	772	4.53644221247	4294967295
614	1043	4.856771451156	4294967295
614	1076	4.966250085757	4294967295
615	559	3.087491857418	0
615	772	4.53644221247	0
615	1043	4.856771451156	0
615	1076	4.966250085757	0
616	576	3.557746235542	0
616	589	3.559562235542	0
616	903	4.82500375634	0
616	1093	5.13345536839	0
616	1273	5.574575830806	0
617	576	3.557746235542	7504
617	589	3.559562235542	897168
617	589	3.559562235542	897168
617	903	4.82500375634	897168
617	1093	5.13345536839	897168
617	1273	5.574575830806	897168
618	576	3.557746235542	7504
618	589	3.559562235542	7504
618	903	4.82500375634	7504
618	1093	5.13345536839	7504
618	1273	5.574575830806	7504
619	576	3.557746235542	0
619	589	3.559562235542	889664
619	903	4.82500375634	889664
619	1093	5.13345536839	889664
619	1273	5.574575830806	889664
620	583	3.558654235542	896941
620	583	3.558654235542	896941
620	596	3.560446235542	896941
620	929	4.82589575634	896944
620	1099	5.13433936839	896945
620	1279	5.575459830806	896946
621	583	3.558654235542	7504
621	596	3.560446235542	7504
622	583	3.558654235542	0
622	596	3.560446235542	0
622	596	3.560446235542	1
622	929	4.82589575634	0
622	929	4.82589575634	0
622	1099	5.13433936839	0
622	1099	5.13433936839	0
622	1279	5.575459830806	0
622	1279	5.575459830806	0
623	583	3.558654235542	7504
623	596	3.560446235542	7503
623	929	4.82589575634	7504
623	1099	5.13433936839	7504
623	1279	5.575459830806	7504
624	583	3.558654235542	889437
624	596	3.560446235542	889438
624	929	4.82589575634	889440
624	1099	5.13433936839	889441
624	1279	5.575459830806	889442
625	589	3.559562235542	889663
625	606	3.561322235542	889664
625	957	4.82677175634	889664
625	1106	5.13521536839	889664
625	1286	5.576335830806	889664
626	589	3.559562235542	889437
626	606	3.561322235542	889438
626	957	4.82677175634	889440
626	1106	5.13521536839	889441
626	1286	5.576335830806	889442
627	589	3.559562235542	7504
627	606	3.561322235542	7503
627	957	4.82677175634	7504
627	1106	5.13521536839	7504
627	1286	5.576335830806	7504
628	589	3.559562235542	1
628	606	3.561322235542	0
628	903	4.82500375634	2
628	957	4.82677175634	0
628	1093	5.13345536839	1
628	1106	5.13521536839	0
628	1273	5.574575830806	1
628	1286	5.576335830806	0
629	596	3.560446235542	889437
629	929	4.82589575634	889438
629	1099	5.13433936839	889440
629	1279	5.575459830806	889441
630	596	3.560446235542	889664
630	929	4.82589575634	889664
630	1099	5.13433936839	889664
630	1279	5.575459830806	889664
631	596	3.560446235542	0
632	596	3.560446235542	1072
633	596	3.560446235542	4294967295
634	596	3.560446235542	0
634	929	4.82589575634	0
634	1099	5.13433936839	0
634	1279	5.575459830806	0
635	606	3.561322235542	0.00176
635	957	4.82677175634	0.001768
635	1106	5.13521536839	0.00176
635	1286	5.576335830806	0.00176
636	606	3.561322235542	0.00022
636	957	4.82677175634	0.0004135
636	1106	5.13521536839	0.0005818125
636	1286	5.576335830806	0.000729085938
637	606	3.561322235542	0.65647
637	957	4.82677175634	0.57460475
637	1106	5.13521536839	0.50294746875
637	1286	5.576335830806	0.440226308594
638	606	3.561322235542	2.6261
638	957	4.82677175634	2.2988325
638	1106	5.13521536839	2.0123716875
638	1286	5.576335830806	1.761634320314
639	606	3.561322235542	1072
639	957	4.82677175634	1608
639	1106	5.13521536839	2144
639	1286	5.576335830806	2680
640	606	3.561322235542	4294967295
640	957	4.82677175634	4294967295
640	1106	5.13521536839	4294967295
640	1286	5.576335830806	4294967295
641	606	3.561322235542	0
641	957	4.82677175634	0
641	1106	5.13521536839	0
641	1286	5.576335830806	0

