file 2735510 1644341505                                         
version 2
run BROADCAST7b-0-20220208-18:31:41-15600
attr configname BROADCAST7b
attr datetime 20220208-18:31:41
attr experiment BROADCAST7b
attr inifile omnetpp.ini
attr iterationvars ""
attr iterationvarsf ""
attr measurement ""
attr network scenario
attr processid 15600
attr repetition 0
attr replication #0
attr resultdir results
attr runnumber 0
attr seedset 0
param *.n 7
param **.client[*].app[0].nPar 7
param **.client[*].app[0].nNPar 0
param **.client[0].app[0].numMsg 4
param **.client[0].app[0].sendFrequency 2.5
param **.client[0].app[0].startSend 0.5
param **.client[1].app[0].numMsg 4
param **.client[1].app[0].sendFrequency 2.5
param **.client[1].app[0].startSend 3.5
param **.client[5].app[0].leave 1.0
param **.client[6].app[0].leave 4.0
param **.client[7].app[0].leave 10.0
param **.ppp[*].ppp.queue.typename "\"DropTailQueue\""
param **.tcp.typename "\"Tcp\""
param **.tcp.nagleEnabled false
param **.client[*].app[*].fPar 0
param **.numApps 1
param **.client[*].app[*].typename "\"Node\""
param **.client[*].app[0].localPort index+1000
param **.client[*].app[0].localPortL 1234
param **.client[*].app[0].connectAddress "\"\""
param **.client[*].app[0].connectPort 1234

vector 0 scenario.client[0].ppp[0].ppp transmissionState:vector ETV
attr interpolationmode sample-hold
attr source transmissionStateChanged
attr title "tx state, vector"
vector 1 scenario.client[0].ppp[1].ppp transmissionState:vector ETV
attr interpolationmode sample-hold
attr source transmissionStateChanged
attr title "tx state, vector"
vector 2 scenario.client[0].ppp[2].ppp transmissionState:vector ETV
attr interpolationmode sample-hold
attr source transmissionStateChanged
attr title "tx state, vector"
vector 3 scenario.client[0].ppp[3].ppp transmissionState:vector ETV
attr interpolationmode sample-hold
attr source transmissionStateChanged
attr title "tx state, vector"
vector 4 scenario.client[0].ppp[4].ppp transmissionState:vector ETV
attr interpolationmode sample-hold
attr source transmissionStateChanged
attr title "tx state, vector"
vector 5 scenario.client[0].ppp[5].ppp transmissionState:vector ETV
attr interpolationmode sample-hold
attr source transmissionStateChanged
attr title "tx state, vector"
vector 6 scenario.client[1].ppp[0].ppp transmissionState:vector ETV
attr interpolationmode sample-hold
attr source transmissionStateChanged
attr title "tx state, vector"
vector 7 scenario.client[1].ppp[1].ppp transmissionState:vector ETV
attr interpolationmode sample-hold
attr source transmissionStateChanged
attr title "tx state, vector"
vector 8 scenario.client[1].ppp[2].ppp transmissionState:vector ETV
attr interpolationmode sample-hold
attr source transmissionStateChanged
attr title "tx state, vector"
vector 9 scenario.client[1].ppp[3].ppp transmissionState:vector ETV
attr interpolationmode sample-hold
attr source transmissionStateChanged
attr title "tx state, vector"
vector 10 scenario.client[1].ppp[4].ppp transmissionState:vector ETV
attr interpolationmode sample-hold
attr source transmissionStateChanged
attr title "tx state, vector"
vector 11 scenario.client[1].ppp[5].ppp transmissionState:vector ETV
attr interpolationmode sample-hold
attr source transmissionStateChanged
attr title "tx state, vector"
vector 12 scenario.client[2].ppp[0].ppp transmissionState:vector ETV
attr interpolationmode sample-hold
attr source transmissionStateChanged
attr title "tx state, vector"
vector 13 scenario.client[2].ppp[1].ppp transmissionState:vector ETV
attr interpolationmode sample-hold
attr source transmissionStateChanged
attr title "tx state, vector"
vector 14 scenario.client[2].ppp[2].ppp transmissionState:vector ETV
attr interpolationmode sample-hold
attr source transmissionStateChanged
attr title "tx state, vector"
vector 15 scenario.client[2].ppp[3].ppp transmissionState:vector ETV
attr interpolationmode sample-hold
attr source transmissionStateChanged
attr title "tx state, vector"
vector 16 scenario.client[2].ppp[4].ppp transmissionState:vector ETV
attr interpolationmode sample-hold
attr source transmissionStateChanged
attr title "tx state, vector"
vector 17 scenario.client[2].ppp[5].ppp transmissionState:vector ETV
attr interpolationmode sample-hold
attr source transmissionStateChanged
attr title "tx state, vector"
vector 18 scenario.client[3].ppp[0].ppp transmissionState:vector ETV
attr interpolationmode sample-hold
attr source transmissionStateChanged
attr title "tx state, vector"
vector 19 scenario.client[3].ppp[1].ppp transmissionState:vector ETV
attr interpolationmode sample-hold
attr source transmissionStateChanged
attr title "tx state, vector"
vector 20 scenario.client[3].ppp[2].ppp transmissionState:vector ETV
attr interpolationmode sample-hold
attr source transmissionStateChanged
attr title "tx state, vector"
vector 21 scenario.client[3].ppp[3].ppp transmissionState:vector ETV
attr interpolationmode sample-hold
attr source transmissionStateChanged
attr title "tx state, vector"
vector 22 scenario.client[3].ppp[4].ppp transmissionState:vector ETV
attr interpolationmode sample-hold
attr source transmissionStateChanged
attr title "tx state, vector"
vector 23 scenario.client[3].ppp[5].ppp transmissionState:vector ETV
attr interpolationmode sample-hold
attr source transmissionStateChanged
attr title "tx state, vector"
vector 24 scenario.client[4].ppp[0].ppp transmissionState:vector ETV
attr interpolationmode sample-hold
attr source transmissionStateChanged
attr title "tx state, vector"
vector 25 scenario.client[4].ppp[1].ppp transmissionState:vector ETV
attr interpolationmode sample-hold
attr source transmissionStateChanged
attr title "tx state, vector"
vector 26 scenario.client[4].ppp[2].ppp transmissionState:vector ETV
attr interpolationmode sample-hold
attr source transmissionStateChanged
attr title "tx state, vector"
vector 27 scenario.client[4].ppp[3].ppp transmissionState:vector ETV
attr interpolationmode sample-hold
attr source transmissionStateChanged
attr title "tx state, vector"
vector 28 scenario.client[4].ppp[4].ppp transmissionState:vector ETV
attr interpolationmode sample-hold
attr source transmissionStateChanged
attr title "tx state, vector"
vector 29 scenario.client[4].ppp[5].ppp transmissionState:vector ETV
attr interpolationmode sample-hold
attr source transmissionStateChanged
attr title "tx state, vector"
vector 30 scenario.client[5].ppp[0].ppp transmissionState:vector ETV
attr interpolationmode sample-hold
attr source transmissionStateChanged
attr title "tx state, vector"
vector 31 scenario.client[5].ppp[1].ppp transmissionState:vector ETV
attr interpolationmode sample-hold
attr source transmissionStateChanged
attr title "tx state, vector"
vector 32 scenario.client[5].ppp[2].ppp transmissionState:vector ETV
attr interpolationmode sample-hold
attr source transmissionStateChanged
attr title "tx state, vector"
vector 33 scenario.client[5].ppp[3].ppp transmissionState:vector ETV
attr interpolationmode sample-hold
attr source transmissionStateChanged
attr title "tx state, vector"
vector 34 scenario.client[5].ppp[4].ppp transmissionState:vector ETV
attr interpolationmode sample-hold
attr source transmissionStateChanged
attr title "tx state, vector"
vector 35 scenario.client[5].ppp[5].ppp transmissionState:vector ETV
attr interpolationmode sample-hold
attr source transmissionStateChanged
attr title "tx state, vector"
vector 36 scenario.client[6].ppp[0].ppp transmissionState:vector ETV
attr interpolationmode sample-hold
attr source transmissionStateChanged
attr title "tx state, vector"
vector 37 scenario.client[6].ppp[1].ppp transmissionState:vector ETV
attr interpolationmode sample-hold
attr source transmissionStateChanged
attr title "tx state, vector"
vector 38 scenario.client[6].ppp[2].ppp transmissionState:vector ETV
attr interpolationmode sample-hold
attr source transmissionStateChanged
attr title "tx state, vector"
vector 39 scenario.client[6].ppp[3].ppp transmissionState:vector ETV
attr interpolationmode sample-hold
attr source transmissionStateChanged
attr title "tx state, vector"
vector 40 scenario.client[6].ppp[4].ppp transmissionState:vector ETV
attr interpolationmode sample-hold
attr source transmissionStateChanged
attr title "tx state, vector"
vector 41 scenario.client[6].ppp[5].ppp transmissionState:vector ETV
attr interpolationmode sample-hold
attr source transmissionStateChanged
attr title "tx state, vector"
vector 42 scenario.client[0].tcp.conn-49 tcpRcvQueueBytes:vector ETV
attr interpolationmode sample-hold
vector 43 scenario.client[0].tcp.conn-49 rcvAdv:vector ETV
attr interpolationmode sample-hold
vector 44 scenario.client[0].tcp.conn-49 rcvWnd:vector ETV
attr interpolationmode sample-hold
vector 45 scenario.client[0].tcp.conn-49 sndAck:vector ETV
attr interpolationmode sample-hold
vector 46 scenario.client[0].ppp[0].ppp rcvdPkFromHl:vector(packetBytes) ETV
attr interpolationmode none
attr source packetReceivedFromUpper
attr title "packets received from higher layer, vector(packetBytes)"
vector 47 scenario.client[0].ppp[0].ppp.queue packetPushed:vector(packetBytes) ETV
attr interpolationmode none
attr title "packet pushed, vector(packetBytes)"
vector 48 scenario.client[0].ppp[0].ppp.queue queueLength:vector ETV
attr interpolationmode sample-hold
attr source "count(packetPushed) - count(packetPopped) - count(packetRemoved) - count(packetDropped)"
attr title "queue length, vector"
vector 49 scenario.client[0].ppp[0].ppp.queue packetPopped:vector(packetBytes) ETV
attr interpolationmode none
attr title "packet popped, vector(packetBytes)"
vector 50 scenario.client[0].ppp[0].ppp.queue queueingTime:vector ETV
attr interpolationmode none
attr source queueingTime(packetPopped)
attr title "queueing times, vector"
attr unit s
vector 51 scenario.client[0].ppp[0].ppp txPk:vector(packetBytes) ETV
attr interpolationmode none
attr source packetSentToLower
attr title "packets transmitted, vector(packetBytes)"
vector 52 scenario.client[1].ppp[0].ppp rxPkOk:vector(packetBytes) ETV
attr interpolationmode none
attr source rxPkOk
attr title "packets received OK, vector(packetBytes)"
vector 53 scenario.client[1].ppp[0].ppp passedUpPk:vector(packetBytes) ETV
attr interpolationmode none
attr source packetSentToUpper
attr title "packets passed to higher layer, vector(packetBytes)"
vector 54 scenario.client[1].tcp.conn-1 rcvSeq:vector ETV
attr interpolationmode sample-hold
vector 55 scenario.client[1].tcp.conn-1 rcvAck:vector ETV
attr interpolationmode sample-hold
vector 56 scenario.client[1].tcp.conn-50 rcvAdv:vector ETV
attr interpolationmode sample-hold
vector 57 scenario.client[1].tcp.conn-50 sndWnd:vector ETV
attr interpolationmode sample-hold
vector 58 scenario.client[1].tcp.conn-50 tcpRcvQueueBytes:vector ETV
attr interpolationmode sample-hold
vector 59 scenario.client[1].tcp.conn-50 rcvWnd:vector ETV
attr interpolationmode sample-hold
vector 60 scenario.client[1].tcp.conn-50 sndAck:vector ETV
attr interpolationmode sample-hold
vector 61 scenario.client[1].ppp[0].ppp rcvdPkFromHl:vector(packetBytes) ETV
attr interpolationmode none
attr source packetReceivedFromUpper
attr title "packets received from higher layer, vector(packetBytes)"
vector 62 scenario.client[1].ppp[0].ppp.queue packetPushed:vector(packetBytes) ETV
attr interpolationmode none
attr title "packet pushed, vector(packetBytes)"
vector 63 scenario.client[1].ppp[0].ppp.queue queueLength:vector ETV
attr interpolationmode sample-hold
attr source "count(packetPushed) - count(packetPopped) - count(packetRemoved) - count(packetDropped)"
attr title "queue length, vector"
vector 64 scenario.client[1].ppp[0].ppp.queue packetPopped:vector(packetBytes) ETV
attr interpolationmode none
attr title "packet popped, vector(packetBytes)"
vector 65 scenario.client[1].ppp[0].ppp.queue queueingTime:vector ETV
attr interpolationmode none
attr source queueingTime(packetPopped)
attr title "queueing times, vector"
attr unit s
vector 66 scenario.client[1].ppp[0].ppp txPk:vector(packetBytes) ETV
attr interpolationmode none
attr source packetSentToLower
attr title "packets transmitted, vector(packetBytes)"
vector 67 scenario.client[0].ppp[0].ppp rxPkOk:vector(packetBytes) ETV
attr interpolationmode none
attr source rxPkOk
attr title "packets received OK, vector(packetBytes)"
vector 68 scenario.client[0].ppp[0].ppp passedUpPk:vector(packetBytes) ETV
attr interpolationmode none
attr source packetSentToUpper
attr title "packets passed to higher layer, vector(packetBytes)"
vector 69 scenario.client[0].tcp.conn-49 rcvSeq:vector ETV
attr interpolationmode sample-hold
vector 70 scenario.client[0].tcp.conn-49 rcvAck:vector ETV
attr interpolationmode sample-hold
vector 71 scenario.client[0].tcp.conn-49 sndWnd:vector ETV
attr interpolationmode sample-hold
vector 72 scenario.client[0].tcp.conn-49 unacked:vector ETV
attr interpolationmode sample-hold
vector 73 scenario.client[1].tcp.conn-50 rcvSeq:vector ETV
attr interpolationmode sample-hold
vector 74 scenario.client[1].tcp.conn-50 rcvAck:vector ETV
attr interpolationmode sample-hold
vector 75 scenario.client[1].tcp.conn-50 unacked:vector ETV
attr interpolationmode sample-hold
vector 76 scenario.client[1].tcp.conn-50 cwnd:vector ETV
attr interpolationmode sample-hold
vector 77 scenario.client[1].tcp.conn-50 ssthresh:vector ETV
attr interpolationmode sample-hold
vector 78 scenario.client[1].tcp.conn-50 dupAcks:vector ETV
attr interpolationmode sample-hold
vector 79 scenario.client[1].tcp.conn-51 tcpRcvQueueBytes:vector ETV
attr interpolationmode sample-hold
vector 80 scenario.client[1].tcp.conn-51 rcvAdv:vector ETV
attr interpolationmode sample-hold
vector 81 scenario.client[1].tcp.conn-51 rcvWnd:vector ETV
attr interpolationmode sample-hold
vector 82 scenario.client[1].tcp.conn-51 sndAck:vector ETV
attr interpolationmode sample-hold
vector 83 scenario.client[0].tcp.conn-49 rtt:vector ETV
attr interpolationmode sample-hold
vector 84 scenario.client[0].tcp.conn-49 srtt:vector ETV
attr interpolationmode sample-hold
vector 85 scenario.client[0].tcp.conn-49 rttvar:vector ETV
attr interpolationmode sample-hold
vector 86 scenario.client[0].tcp.conn-49 rto:vector ETV
attr interpolationmode sample-hold
vector 87 scenario.client[0].tcp.conn-49 cwnd:vector ETV
attr interpolationmode sample-hold
vector 88 scenario.client[0].tcp.conn-49 ssthresh:vector ETV
attr interpolationmode sample-hold
vector 89 scenario.client[0].tcp.conn-49 dupAcks:vector ETV
attr interpolationmode sample-hold
vector 90 scenario.client[0].tcp.conn-0 rcvSeq:vector ETV
attr interpolationmode sample-hold
vector 91 scenario.client[0].tcp.conn-0 rcvAck:vector ETV
attr interpolationmode sample-hold
vector 92 scenario.client[0].tcp.conn-52 rcvAdv:vector ETV
attr interpolationmode sample-hold
vector 93 scenario.client[0].tcp.conn-52 sndWnd:vector ETV
attr interpolationmode sample-hold
vector 94 scenario.client[0].tcp.conn-52 tcpRcvQueueBytes:vector ETV
attr interpolationmode sample-hold
vector 95 scenario.client[0].tcp.conn-52 rcvWnd:vector ETV
attr interpolationmode sample-hold
vector 96 scenario.client[0].tcp.conn-52 sndAck:vector ETV
attr interpolationmode sample-hold
vector 97 scenario.client[1].tcp.conn-51 rcvSeq:vector ETV
attr interpolationmode sample-hold
vector 98 scenario.client[1].tcp.conn-51 rcvAck:vector ETV
attr interpolationmode sample-hold
vector 99 scenario.client[1].tcp.conn-51 sndWnd:vector ETV
attr interpolationmode sample-hold
vector 100 scenario.client[1].tcp.conn-51 unacked:vector ETV
attr interpolationmode sample-hold
vector 101 scenario.client[0].tcp.conn-52 rcvSeq:vector ETV
attr interpolationmode sample-hold
vector 102 scenario.client[0].tcp.conn-52 rcvAck:vector ETV
attr interpolationmode sample-hold
vector 103 scenario.client[0].tcp.conn-52 unacked:vector ETV
attr interpolationmode sample-hold
vector 104 scenario.client[0].tcp.conn-52 cwnd:vector ETV
attr interpolationmode sample-hold
vector 105 scenario.client[0].tcp.conn-52 ssthresh:vector ETV
attr interpolationmode sample-hold
vector 106 scenario.client[0].tcp.conn-52 dupAcks:vector ETV
attr interpolationmode sample-hold
vector 107 scenario.client[1].tcp.conn-51 rtt:vector ETV
attr interpolationmode sample-hold
vector 108 scenario.client[1].tcp.conn-51 srtt:vector ETV
attr interpolationmode sample-hold
vector 109 scenario.client[1].tcp.conn-51 rttvar:vector ETV
attr interpolationmode sample-hold
vector 110 scenario.client[1].tcp.conn-51 rto:vector ETV
attr interpolationmode sample-hold
vector 111 scenario.client[1].tcp.conn-51 cwnd:vector ETV
attr interpolationmode sample-hold
vector 112 scenario.client[1].tcp.conn-51 ssthresh:vector ETV
attr interpolationmode sample-hold
vector 113 scenario.client[1].tcp.conn-51 dupAcks:vector ETV
attr interpolationmode sample-hold
vector 114 scenario.client[0].tcp.conn-53 tcpRcvQueueBytes:vector ETV
attr interpolationmode sample-hold
vector 115 scenario.client[0].tcp.conn-53 rcvAdv:vector ETV
attr interpolationmode sample-hold
vector 116 scenario.client[0].tcp.conn-53 rcvWnd:vector ETV
attr interpolationmode sample-hold
vector 117 scenario.client[0].tcp.conn-53 sndAck:vector ETV
attr interpolationmode sample-hold
vector 118 scenario.client[0].ppp[1].ppp rcvdPkFromHl:vector(packetBytes) ETV
attr interpolationmode none
attr source packetReceivedFromUpper
attr title "packets received from higher layer, vector(packetBytes)"
vector 119 scenario.client[0].ppp[1].ppp.queue packetPushed:vector(packetBytes) ETV
attr interpolationmode none
attr title "packet pushed, vector(packetBytes)"
vector 120 scenario.client[0].ppp[1].ppp.queue queueLength:vector ETV
attr interpolationmode sample-hold
attr source "count(packetPushed) - count(packetPopped) - count(packetRemoved) - count(packetDropped)"
attr title "queue length, vector"
vector 121 scenario.client[0].ppp[1].ppp.queue packetPopped:vector(packetBytes) ETV
attr interpolationmode none
attr title "packet popped, vector(packetBytes)"
vector 122 scenario.client[0].ppp[1].ppp.queue queueingTime:vector ETV
attr interpolationmode none
attr source queueingTime(packetPopped)
attr title "queueing times, vector"
attr unit s
vector 123 scenario.client[0].ppp[1].ppp txPk:vector(packetBytes) ETV
attr interpolationmode none
attr source packetSentToLower
attr title "packets transmitted, vector(packetBytes)"
vector 124 scenario.client[2].ppp[0].ppp rxPkOk:vector(packetBytes) ETV
attr interpolationmode none
attr source rxPkOk
attr title "packets received OK, vector(packetBytes)"
vector 125 scenario.client[2].ppp[0].ppp passedUpPk:vector(packetBytes) ETV
attr interpolationmode none
attr source packetSentToUpper
attr title "packets passed to higher layer, vector(packetBytes)"
vector 126 scenario.client[2].tcp.conn-2 rcvSeq:vector ETV
attr interpolationmode sample-hold
vector 127 scenario.client[2].tcp.conn-2 rcvAck:vector ETV
attr interpolationmode sample-hold
vector 128 scenario.client[2].tcp.conn-54 rcvAdv:vector ETV
attr interpolationmode sample-hold
vector 129 scenario.client[2].tcp.conn-54 sndWnd:vector ETV
attr interpolationmode sample-hold
vector 130 scenario.client[2].tcp.conn-54 tcpRcvQueueBytes:vector ETV
attr interpolationmode sample-hold
vector 131 scenario.client[2].tcp.conn-54 rcvWnd:vector ETV
attr interpolationmode sample-hold
vector 132 scenario.client[2].tcp.conn-54 sndAck:vector ETV
attr interpolationmode sample-hold
vector 133 scenario.client[2].ppp[0].ppp rcvdPkFromHl:vector(packetBytes) ETV
attr interpolationmode none
attr source packetReceivedFromUpper
attr title "packets received from higher layer, vector(packetBytes)"
vector 134 scenario.client[2].ppp[0].ppp.queue packetPushed:vector(packetBytes) ETV
attr interpolationmode none
attr title "packet pushed, vector(packetBytes)"
vector 135 scenario.client[2].ppp[0].ppp.queue queueLength:vector ETV
attr interpolationmode sample-hold
attr source "count(packetPushed) - count(packetPopped) - count(packetRemoved) - count(packetDropped)"
attr title "queue length, vector"
vector 136 scenario.client[2].ppp[0].ppp.queue packetPopped:vector(packetBytes) ETV
attr interpolationmode none
attr title "packet popped, vector(packetBytes)"
vector 137 scenario.client[2].ppp[0].ppp.queue queueingTime:vector ETV
attr interpolationmode none
attr source queueingTime(packetPopped)
attr title "queueing times, vector"
attr unit s
vector 138 scenario.client[2].ppp[0].ppp txPk:vector(packetBytes) ETV
attr interpolationmode none
attr source packetSentToLower
attr title "packets transmitted, vector(packetBytes)"
vector 139 scenario.client[0].ppp[1].ppp rxPkOk:vector(packetBytes) ETV
attr interpolationmode none
attr source rxPkOk
attr title "packets received OK, vector(packetBytes)"
vector 140 scenario.client[0].ppp[1].ppp passedUpPk:vector(packetBytes) ETV
attr interpolationmode none
attr source packetSentToUpper
attr title "packets passed to higher layer, vector(packetBytes)"
vector 141 scenario.client[0].tcp.conn-53 rcvSeq:vector ETV
attr interpolationmode sample-hold
vector 142 scenario.client[0].tcp.conn-53 rcvAck:vector ETV
attr interpolationmode sample-hold
vector 143 scenario.client[0].tcp.conn-53 sndWnd:vector ETV
attr interpolationmode sample-hold
vector 144 scenario.client[0].tcp.conn-53 unacked:vector ETV
attr interpolationmode sample-hold
vector 145 scenario.client[2].tcp.conn-54 rcvSeq:vector ETV
attr interpolationmode sample-hold
vector 146 scenario.client[2].tcp.conn-54 rcvAck:vector ETV
attr interpolationmode sample-hold
vector 147 scenario.client[2].tcp.conn-54 unacked:vector ETV
attr interpolationmode sample-hold
vector 148 scenario.client[2].tcp.conn-54 cwnd:vector ETV
attr interpolationmode sample-hold
vector 149 scenario.client[2].tcp.conn-54 ssthresh:vector ETV
attr interpolationmode sample-hold
vector 150 scenario.client[2].tcp.conn-54 dupAcks:vector ETV
attr interpolationmode sample-hold
vector 151 scenario.client[2].tcp.conn-55 tcpRcvQueueBytes:vector ETV
attr interpolationmode sample-hold
vector 152 scenario.client[2].tcp.conn-55 rcvAdv:vector ETV
attr interpolationmode sample-hold
vector 153 scenario.client[2].tcp.conn-55 rcvWnd:vector ETV
attr interpolationmode sample-hold
vector 154 scenario.client[2].tcp.conn-55 sndAck:vector ETV
attr interpolationmode sample-hold
vector 155 scenario.client[0].tcp.conn-53 rtt:vector ETV
attr interpolationmode sample-hold
vector 156 scenario.client[0].tcp.conn-53 srtt:vector ETV
attr interpolationmode sample-hold
vector 157 scenario.client[0].tcp.conn-53 rttvar:vector ETV
attr interpolationmode sample-hold
vector 158 scenario.client[0].tcp.conn-53 rto:vector ETV
attr interpolationmode sample-hold
vector 159 scenario.client[0].tcp.conn-53 cwnd:vector ETV
attr interpolationmode sample-hold
vector 160 scenario.client[0].tcp.conn-53 ssthresh:vector ETV
attr interpolationmode sample-hold
vector 161 scenario.client[0].tcp.conn-53 dupAcks:vector ETV
attr interpolationmode sample-hold
vector 162 scenario.client[0].tcp.conn-56 rcvAdv:vector ETV
attr interpolationmode sample-hold
vector 163 scenario.client[0].tcp.conn-56 sndWnd:vector ETV
attr interpolationmode sample-hold
vector 164 scenario.client[0].tcp.conn-56 tcpRcvQueueBytes:vector ETV
attr interpolationmode sample-hold
vector 165 scenario.client[0].tcp.conn-56 rcvWnd:vector ETV
attr interpolationmode sample-hold
vector 166 scenario.client[0].tcp.conn-56 sndAck:vector ETV
attr interpolationmode sample-hold
vector 167 scenario.client[2].tcp.conn-55 rcvSeq:vector ETV
attr interpolationmode sample-hold
vector 168 scenario.client[2].tcp.conn-55 rcvAck:vector ETV
attr interpolationmode sample-hold
vector 169 scenario.client[2].tcp.conn-55 sndWnd:vector ETV
attr interpolationmode sample-hold
vector 170 scenario.client[2].tcp.conn-55 unacked:vector ETV
attr interpolationmode sample-hold
vector 171 scenario.client[0].tcp.conn-56 rcvSeq:vector ETV
attr interpolationmode sample-hold
vector 172 scenario.client[0].tcp.conn-56 rcvAck:vector ETV
attr interpolationmode sample-hold
vector 173 scenario.client[0].tcp.conn-56 unacked:vector ETV
attr interpolationmode sample-hold
vector 174 scenario.client[0].tcp.conn-56 cwnd:vector ETV
attr interpolationmode sample-hold
vector 175 scenario.client[0].tcp.conn-56 ssthresh:vector ETV
attr interpolationmode sample-hold
vector 176 scenario.client[0].tcp.conn-56 dupAcks:vector ETV
attr interpolationmode sample-hold
vector 177 scenario.client[2].tcp.conn-55 rtt:vector ETV
attr interpolationmode sample-hold
vector 178 scenario.client[2].tcp.conn-55 srtt:vector ETV
attr interpolationmode sample-hold
vector 179 scenario.client[2].tcp.conn-55 rttvar:vector ETV
attr interpolationmode sample-hold
vector 180 scenario.client[2].tcp.conn-55 rto:vector ETV
attr interpolationmode sample-hold
vector 181 scenario.client[2].tcp.conn-55 cwnd:vector ETV
attr interpolationmode sample-hold
vector 182 scenario.client[2].tcp.conn-55 ssthresh:vector ETV
attr interpolationmode sample-hold
vector 183 scenario.client[2].tcp.conn-55 dupAcks:vector ETV
attr interpolationmode sample-hold
vector 184 scenario.client[5].tcp.conn-57 tcpRcvQueueBytes:vector ETV
attr interpolationmode sample-hold
vector 185 scenario.client[5].tcp.conn-57 rcvAdv:vector ETV
attr interpolationmode sample-hold
vector 186 scenario.client[5].tcp.conn-57 rcvWnd:vector ETV
attr interpolationmode sample-hold
vector 187 scenario.client[5].tcp.conn-57 sndAck:vector ETV
attr interpolationmode sample-hold
vector 188 scenario.client[5].ppp[0].ppp rcvdPkFromHl:vector(packetBytes) ETV
attr interpolationmode none
attr source packetReceivedFromUpper
attr title "packets received from higher layer, vector(packetBytes)"
vector 189 scenario.client[5].ppp[0].ppp.queue packetPushed:vector(packetBytes) ETV
attr interpolationmode none
attr title "packet pushed, vector(packetBytes)"
vector 190 scenario.client[5].ppp[0].ppp.queue queueLength:vector ETV
attr interpolationmode sample-hold
attr source "count(packetPushed) - count(packetPopped) - count(packetRemoved) - count(packetDropped)"
attr title "queue length, vector"
vector 191 scenario.client[5].ppp[0].ppp.queue packetPopped:vector(packetBytes) ETV
attr interpolationmode none
attr title "packet popped, vector(packetBytes)"
vector 192 scenario.client[5].ppp[0].ppp.queue queueingTime:vector ETV
attr interpolationmode none
attr source queueingTime(packetPopped)
attr title "queueing times, vector"
attr unit s
vector 193 scenario.client[5].ppp[0].ppp txPk:vector(packetBytes) ETV
attr interpolationmode none
attr source packetSentToLower
attr title "packets transmitted, vector(packetBytes)"
vector 194 scenario.client[0].ppp[4].ppp rxPkOk:vector(packetBytes) ETV
attr interpolationmode none
attr source rxPkOk
attr title "packets received OK, vector(packetBytes)"
vector 195 scenario.client[0].ppp[4].ppp passedUpPk:vector(packetBytes) ETV
attr interpolationmode none
attr source packetSentToUpper
attr title "packets passed to higher layer, vector(packetBytes)"
vector 196 scenario.client[0].tcp.conn-58 rcvAdv:vector ETV
attr interpolationmode sample-hold
vector 197 scenario.client[0].tcp.conn-58 sndWnd:vector ETV
attr interpolationmode sample-hold
vector 198 scenario.client[0].tcp.conn-58 tcpRcvQueueBytes:vector ETV
attr interpolationmode sample-hold
vector 199 scenario.client[0].tcp.conn-58 rcvWnd:vector ETV
attr interpolationmode sample-hold
vector 200 scenario.client[0].tcp.conn-58 sndAck:vector ETV
attr interpolationmode sample-hold
vector 201 scenario.client[0].ppp[4].ppp rcvdPkFromHl:vector(packetBytes) ETV
attr interpolationmode none
attr source packetReceivedFromUpper
attr title "packets received from higher layer, vector(packetBytes)"
vector 202 scenario.client[0].ppp[4].ppp.queue packetPushed:vector(packetBytes) ETV
attr interpolationmode none
attr title "packet pushed, vector(packetBytes)"
vector 203 scenario.client[0].ppp[4].ppp.queue queueLength:vector ETV
attr interpolationmode sample-hold
attr source "count(packetPushed) - count(packetPopped) - count(packetRemoved) - count(packetDropped)"
attr title "queue length, vector"
vector 204 scenario.client[0].ppp[4].ppp.queue packetPopped:vector(packetBytes) ETV
attr interpolationmode none
attr title "packet popped, vector(packetBytes)"
vector 205 scenario.client[0].ppp[4].ppp.queue queueingTime:vector ETV
attr interpolationmode none
attr source queueingTime(packetPopped)
attr title "queueing times, vector"
attr unit s
vector 206 scenario.client[0].ppp[4].ppp txPk:vector(packetBytes) ETV
attr interpolationmode none
attr source packetSentToLower
attr title "packets transmitted, vector(packetBytes)"
vector 207 scenario.client[5].ppp[0].ppp rxPkOk:vector(packetBytes) ETV
attr interpolationmode none
attr source rxPkOk
attr title "packets received OK, vector(packetBytes)"
vector 208 scenario.client[5].ppp[0].ppp passedUpPk:vector(packetBytes) ETV
attr interpolationmode none
attr source packetSentToUpper
attr title "packets passed to higher layer, vector(packetBytes)"
vector 209 scenario.client[5].tcp.conn-57 rcvSeq:vector ETV
attr interpolationmode sample-hold
vector 210 scenario.client[5].tcp.conn-57 rcvAck:vector ETV
attr interpolationmode sample-hold
vector 211 scenario.client[5].tcp.conn-57 sndWnd:vector ETV
attr interpolationmode sample-hold
vector 212 scenario.client[5].tcp.conn-57 unacked:vector ETV
attr interpolationmode sample-hold
vector 213 scenario.client[0].tcp.conn-58 rcvSeq:vector ETV
attr interpolationmode sample-hold
vector 214 scenario.client[0].tcp.conn-58 rcvAck:vector ETV
attr interpolationmode sample-hold
vector 215 scenario.client[0].tcp.conn-58 unacked:vector ETV
attr interpolationmode sample-hold
vector 216 scenario.client[0].tcp.conn-58 cwnd:vector ETV
attr interpolationmode sample-hold
vector 217 scenario.client[0].tcp.conn-58 ssthresh:vector ETV
attr interpolationmode sample-hold
vector 218 scenario.client[0].tcp.conn-58 dupAcks:vector ETV
attr interpolationmode sample-hold
vector 219 scenario.client[5].tcp.conn-57 rtt:vector ETV
attr interpolationmode sample-hold
vector 220 scenario.client[5].tcp.conn-57 srtt:vector ETV
attr interpolationmode sample-hold
vector 221 scenario.client[5].tcp.conn-57 rttvar:vector ETV
attr interpolationmode sample-hold
vector 222 scenario.client[5].tcp.conn-57 rto:vector ETV
attr interpolationmode sample-hold
vector 223 scenario.client[5].tcp.conn-57 cwnd:vector ETV
attr interpolationmode sample-hold
vector 224 scenario.client[5].tcp.conn-57 ssthresh:vector ETV
attr interpolationmode sample-hold
vector 225 scenario.client[5].tcp.conn-57 dupAcks:vector ETV
attr interpolationmode sample-hold
vector 226 scenario.client[0].tcp.conn-59 tcpRcvQueueBytes:vector ETV
attr interpolationmode sample-hold
vector 227 scenario.client[0].tcp.conn-59 rcvAdv:vector ETV
attr interpolationmode sample-hold
vector 228 scenario.client[0].tcp.conn-59 rcvWnd:vector ETV
attr interpolationmode sample-hold
vector 229 scenario.client[0].tcp.conn-59 sndAck:vector ETV
attr interpolationmode sample-hold
vector 230 scenario.client[0].ppp[2].ppp rcvdPkFromHl:vector(packetBytes) ETV
attr interpolationmode none
attr source packetReceivedFromUpper
attr title "packets received from higher layer, vector(packetBytes)"
vector 231 scenario.client[0].ppp[2].ppp.queue packetPushed:vector(packetBytes) ETV
attr interpolationmode none
attr title "packet pushed, vector(packetBytes)"
vector 232 scenario.client[0].ppp[2].ppp.queue queueLength:vector ETV
attr interpolationmode sample-hold
attr source "count(packetPushed) - count(packetPopped) - count(packetRemoved) - count(packetDropped)"
attr title "queue length, vector"
vector 233 scenario.client[0].ppp[2].ppp.queue packetPopped:vector(packetBytes) ETV
attr interpolationmode none
attr title "packet popped, vector(packetBytes)"
vector 234 scenario.client[0].ppp[2].ppp.queue queueingTime:vector ETV
attr interpolationmode none
attr source queueingTime(packetPopped)
attr title "queueing times, vector"
attr unit s
vector 235 scenario.client[0].ppp[2].ppp txPk:vector(packetBytes) ETV
attr interpolationmode none
attr source packetSentToLower
attr title "packets transmitted, vector(packetBytes)"
vector 236 scenario.client[3].ppp[0].ppp rxPkOk:vector(packetBytes) ETV
attr interpolationmode none
attr source rxPkOk
attr title "packets received OK, vector(packetBytes)"
vector 237 scenario.client[3].ppp[0].ppp passedUpPk:vector(packetBytes) ETV
attr interpolationmode none
attr source packetSentToUpper
attr title "packets passed to higher layer, vector(packetBytes)"
vector 238 scenario.client[3].tcp.conn-3 rcvSeq:vector ETV
attr interpolationmode sample-hold
vector 239 scenario.client[3].tcp.conn-3 rcvAck:vector ETV
attr interpolationmode sample-hold
vector 240 scenario.client[3].tcp.conn-60 rcvAdv:vector ETV
attr interpolationmode sample-hold
vector 241 scenario.client[3].tcp.conn-60 sndWnd:vector ETV
attr interpolationmode sample-hold
vector 242 scenario.client[3].tcp.conn-60 tcpRcvQueueBytes:vector ETV
attr interpolationmode sample-hold
vector 243 scenario.client[3].tcp.conn-60 rcvWnd:vector ETV
attr interpolationmode sample-hold
vector 244 scenario.client[3].tcp.conn-60 sndAck:vector ETV
attr interpolationmode sample-hold
vector 245 scenario.client[3].ppp[0].ppp rcvdPkFromHl:vector(packetBytes) ETV
attr interpolationmode none
attr source packetReceivedFromUpper
attr title "packets received from higher layer, vector(packetBytes)"
vector 246 scenario.client[3].ppp[0].ppp.queue packetPushed:vector(packetBytes) ETV
attr interpolationmode none
attr title "packet pushed, vector(packetBytes)"
vector 247 scenario.client[3].ppp[0].ppp.queue queueLength:vector ETV
attr interpolationmode sample-hold
attr source "count(packetPushed) - count(packetPopped) - count(packetRemoved) - count(packetDropped)"
attr title "queue length, vector"
vector 248 scenario.client[3].ppp[0].ppp.queue packetPopped:vector(packetBytes) ETV
attr interpolationmode none
attr title "packet popped, vector(packetBytes)"
vector 249 scenario.client[3].ppp[0].ppp.queue queueingTime:vector ETV
attr interpolationmode none
attr source queueingTime(packetPopped)
attr title "queueing times, vector"
attr unit s
vector 250 scenario.client[3].ppp[0].ppp txPk:vector(packetBytes) ETV
attr interpolationmode none
attr source packetSentToLower
attr title "packets transmitted, vector(packetBytes)"
vector 251 scenario.client[0].ppp[2].ppp rxPkOk:vector(packetBytes) ETV
attr interpolationmode none
attr source rxPkOk
attr title "packets received OK, vector(packetBytes)"
vector 252 scenario.client[0].ppp[2].ppp passedUpPk:vector(packetBytes) ETV
attr interpolationmode none
attr source packetSentToUpper
attr title "packets passed to higher layer, vector(packetBytes)"
vector 253 scenario.client[0].tcp.conn-59 rcvSeq:vector ETV
attr interpolationmode sample-hold
vector 254 scenario.client[0].tcp.conn-59 rcvAck:vector ETV
attr interpolationmode sample-hold
vector 255 scenario.client[0].tcp.conn-59 sndWnd:vector ETV
attr interpolationmode sample-hold
vector 256 scenario.client[0].tcp.conn-59 unacked:vector ETV
attr interpolationmode sample-hold
vector 257 scenario.client[3].tcp.conn-60 rcvSeq:vector ETV
attr interpolationmode sample-hold
vector 258 scenario.client[3].tcp.conn-60 rcvAck:vector ETV
attr interpolationmode sample-hold
vector 259 scenario.client[3].tcp.conn-60 unacked:vector ETV
attr interpolationmode sample-hold
vector 260 scenario.client[3].tcp.conn-60 cwnd:vector ETV
attr interpolationmode sample-hold
vector 261 scenario.client[3].tcp.conn-60 ssthresh:vector ETV
attr interpolationmode sample-hold
vector 262 scenario.client[3].tcp.conn-60 dupAcks:vector ETV
attr interpolationmode sample-hold
vector 263 scenario.client[3].tcp.conn-61 tcpRcvQueueBytes:vector ETV
attr interpolationmode sample-hold
vector 264 scenario.client[3].tcp.conn-61 rcvAdv:vector ETV
attr interpolationmode sample-hold
vector 265 scenario.client[3].tcp.conn-61 rcvWnd:vector ETV
attr interpolationmode sample-hold
vector 266 scenario.client[3].tcp.conn-61 sndAck:vector ETV
attr interpolationmode sample-hold
vector 267 scenario.client[0].tcp.conn-59 rtt:vector ETV
attr interpolationmode sample-hold
vector 268 scenario.client[0].tcp.conn-59 srtt:vector ETV
attr interpolationmode sample-hold
vector 269 scenario.client[0].tcp.conn-59 rttvar:vector ETV
attr interpolationmode sample-hold
vector 270 scenario.client[0].tcp.conn-59 rto:vector ETV
attr interpolationmode sample-hold
vector 271 scenario.client[0].tcp.conn-59 cwnd:vector ETV
attr interpolationmode sample-hold
vector 272 scenario.client[0].tcp.conn-59 ssthresh:vector ETV
attr interpolationmode sample-hold
vector 273 scenario.client[0].tcp.conn-59 dupAcks:vector ETV
attr interpolationmode sample-hold
vector 274 scenario.client[0].tcp.conn-62 rcvAdv:vector ETV
attr interpolationmode sample-hold
vector 275 scenario.client[0].tcp.conn-62 sndWnd:vector ETV
attr interpolationmode sample-hold
vector 276 scenario.client[0].tcp.conn-62 tcpRcvQueueBytes:vector ETV
attr interpolationmode sample-hold
vector 277 scenario.client[0].tcp.conn-62 rcvWnd:vector ETV
attr interpolationmode sample-hold
vector 278 scenario.client[0].tcp.conn-62 sndAck:vector ETV
attr interpolationmode sample-hold
vector 279 scenario.client[3].tcp.conn-61 rcvSeq:vector ETV
attr interpolationmode sample-hold
vector 280 scenario.client[3].tcp.conn-61 rcvAck:vector ETV
attr interpolationmode sample-hold
vector 281 scenario.client[3].tcp.conn-61 sndWnd:vector ETV
attr interpolationmode sample-hold
vector 282 scenario.client[3].tcp.conn-61 unacked:vector ETV
attr interpolationmode sample-hold
vector 283 scenario.client[0].tcp.conn-62 rcvSeq:vector ETV
attr interpolationmode sample-hold
vector 284 scenario.client[0].tcp.conn-62 rcvAck:vector ETV
attr interpolationmode sample-hold
vector 285 scenario.client[0].tcp.conn-62 unacked:vector ETV
attr interpolationmode sample-hold
vector 286 scenario.client[0].tcp.conn-62 cwnd:vector ETV
attr interpolationmode sample-hold
vector 287 scenario.client[0].tcp.conn-62 ssthresh:vector ETV
attr interpolationmode sample-hold
vector 288 scenario.client[0].tcp.conn-62 dupAcks:vector ETV
attr interpolationmode sample-hold
vector 289 scenario.client[3].tcp.conn-61 rtt:vector ETV
attr interpolationmode sample-hold
vector 290 scenario.client[3].tcp.conn-61 srtt:vector ETV
attr interpolationmode sample-hold
vector 291 scenario.client[3].tcp.conn-61 rttvar:vector ETV
attr interpolationmode sample-hold
vector 292 scenario.client[3].tcp.conn-61 rto:vector ETV
attr interpolationmode sample-hold
vector 293 scenario.client[3].tcp.conn-61 cwnd:vector ETV
attr interpolationmode sample-hold
vector 294 scenario.client[3].tcp.conn-61 ssthresh:vector ETV
attr interpolationmode sample-hold
vector 295 scenario.client[3].tcp.conn-61 dupAcks:vector ETV
attr interpolationmode sample-hold
vector 296 scenario.client[5].tcp.conn-63 tcpRcvQueueBytes:vector ETV
attr interpolationmode sample-hold
vector 297 scenario.client[5].tcp.conn-63 rcvAdv:vector ETV
attr interpolationmode sample-hold
vector 298 scenario.client[5].tcp.conn-63 rcvWnd:vector ETV
attr interpolationmode sample-hold
vector 299 scenario.client[5].tcp.conn-63 sndAck:vector ETV
attr interpolationmode sample-hold
vector 300 scenario.client[5].ppp[1].ppp rcvdPkFromHl:vector(packetBytes) ETV
attr interpolationmode none
attr source packetReceivedFromUpper
attr title "packets received from higher layer, vector(packetBytes)"
vector 301 scenario.client[5].ppp[1].ppp.queue packetPushed:vector(packetBytes) ETV
attr interpolationmode none
attr title "packet pushed, vector(packetBytes)"
vector 302 scenario.client[5].ppp[1].ppp.queue queueLength:vector ETV
attr interpolationmode sample-hold
attr source "count(packetPushed) - count(packetPopped) - count(packetRemoved) - count(packetDropped)"
attr title "queue length, vector"
vector 303 scenario.client[5].ppp[1].ppp.queue packetPopped:vector(packetBytes) ETV
attr interpolationmode none
attr title "packet popped, vector(packetBytes)"
vector 304 scenario.client[5].ppp[1].ppp.queue queueingTime:vector ETV
attr interpolationmode none
attr source queueingTime(packetPopped)
attr title "queueing times, vector"
attr unit s
vector 305 scenario.client[5].ppp[1].ppp txPk:vector(packetBytes) ETV
attr interpolationmode none
attr source packetSentToLower
attr title "packets transmitted, vector(packetBytes)"
vector 306 scenario.client[1].ppp[4].ppp rxPkOk:vector(packetBytes) ETV
attr interpolationmode none
attr source rxPkOk
attr title "packets received OK, vector(packetBytes)"
vector 307 scenario.client[1].ppp[4].ppp passedUpPk:vector(packetBytes) ETV
attr interpolationmode none
attr source packetSentToUpper
attr title "packets passed to higher layer, vector(packetBytes)"
vector 308 scenario.client[1].tcp.conn-64 rcvAdv:vector ETV
attr interpolationmode sample-hold
vector 309 scenario.client[1].tcp.conn-64 sndWnd:vector ETV
attr interpolationmode sample-hold
vector 310 scenario.client[1].tcp.conn-64 tcpRcvQueueBytes:vector ETV
attr interpolationmode sample-hold
vector 311 scenario.client[1].tcp.conn-64 rcvWnd:vector ETV
attr interpolationmode sample-hold
vector 312 scenario.client[1].tcp.conn-64 sndAck:vector ETV
attr interpolationmode sample-hold
vector 313 scenario.client[1].ppp[4].ppp rcvdPkFromHl:vector(packetBytes) ETV
attr interpolationmode none
attr source packetReceivedFromUpper
attr title "packets received from higher layer, vector(packetBytes)"
vector 314 scenario.client[1].ppp[4].ppp.queue packetPushed:vector(packetBytes) ETV
attr interpolationmode none
attr title "packet pushed, vector(packetBytes)"
vector 315 scenario.client[1].ppp[4].ppp.queue queueLength:vector ETV
attr interpolationmode sample-hold
attr source "count(packetPushed) - count(packetPopped) - count(packetRemoved) - count(packetDropped)"
attr title "queue length, vector"
vector 316 scenario.client[1].ppp[4].ppp.queue packetPopped:vector(packetBytes) ETV
attr interpolationmode none
attr title "packet popped, vector(packetBytes)"
vector 317 scenario.client[1].ppp[4].ppp.queue queueingTime:vector ETV
attr interpolationmode none
attr source queueingTime(packetPopped)
attr title "queueing times, vector"
attr unit s
vector 318 scenario.client[1].ppp[4].ppp txPk:vector(packetBytes) ETV
attr interpolationmode none
attr source packetSentToLower
attr title "packets transmitted, vector(packetBytes)"
vector 319 scenario.client[5].ppp[1].ppp rxPkOk:vector(packetBytes) ETV
attr interpolationmode none
attr source rxPkOk
attr title "packets received OK, vector(packetBytes)"
vector 320 scenario.client[5].ppp[1].ppp passedUpPk:vector(packetBytes) ETV
attr interpolationmode none
attr source packetSentToUpper
attr title "packets passed to higher layer, vector(packetBytes)"
vector 321 scenario.client[5].tcp.conn-63 rcvSeq:vector ETV
attr interpolationmode sample-hold
vector 322 scenario.client[5].tcp.conn-63 rcvAck:vector ETV
attr interpolationmode sample-hold
vector 323 scenario.client[5].tcp.conn-63 sndWnd:vector ETV
attr interpolationmode sample-hold
vector 324 scenario.client[5].tcp.conn-63 unacked:vector ETV
attr interpolationmode sample-hold
vector 325 scenario.client[1].tcp.conn-64 rcvSeq:vector ETV
attr interpolationmode sample-hold
vector 326 scenario.client[1].tcp.conn-64 rcvAck:vector ETV
attr interpolationmode sample-hold
vector 327 scenario.client[1].tcp.conn-64 unacked:vector ETV
attr interpolationmode sample-hold
vector 328 scenario.client[1].tcp.conn-64 cwnd:vector ETV
attr interpolationmode sample-hold
vector 329 scenario.client[1].tcp.conn-64 ssthresh:vector ETV
attr interpolationmode sample-hold
vector 330 scenario.client[1].tcp.conn-64 dupAcks:vector ETV
attr interpolationmode sample-hold
vector 331 scenario.client[5].tcp.conn-63 rtt:vector ETV
attr interpolationmode sample-hold
vector 332 scenario.client[5].tcp.conn-63 srtt:vector ETV
attr interpolationmode sample-hold
vector 333 scenario.client[5].tcp.conn-63 rttvar:vector ETV
attr interpolationmode sample-hold
vector 334 scenario.client[5].tcp.conn-63 rto:vector ETV
attr interpolationmode sample-hold
vector 335 scenario.client[5].tcp.conn-63 cwnd:vector ETV
attr interpolationmode sample-hold
vector 336 scenario.client[5].tcp.conn-63 ssthresh:vector ETV
attr interpolationmode sample-hold
vector 337 scenario.client[5].tcp.conn-63 dupAcks:vector ETV
attr interpolationmode sample-hold
vector 338 scenario.client[5].tcp.conn-65 tcpRcvQueueBytes:vector ETV
attr interpolationmode sample-hold
vector 339 scenario.client[5].tcp.conn-65 rcvAdv:vector ETV
attr interpolationmode sample-hold
vector 340 scenario.client[5].tcp.conn-65 rcvWnd:vector ETV
attr interpolationmode sample-hold
vector 341 scenario.client[5].tcp.conn-65 sndAck:vector ETV
attr interpolationmode sample-hold
vector 342 scenario.client[5].ppp[2].ppp rcvdPkFromHl:vector(packetBytes) ETV
attr interpolationmode none
attr source packetReceivedFromUpper
attr title "packets received from higher layer, vector(packetBytes)"
vector 343 scenario.client[5].ppp[2].ppp.queue packetPushed:vector(packetBytes) ETV
attr interpolationmode none
attr title "packet pushed, vector(packetBytes)"
vector 344 scenario.client[5].ppp[2].ppp.queue queueLength:vector ETV
attr interpolationmode sample-hold
attr source "count(packetPushed) - count(packetPopped) - count(packetRemoved) - count(packetDropped)"
attr title "queue length, vector"
vector 345 scenario.client[5].ppp[2].ppp.queue packetPopped:vector(packetBytes) ETV
attr interpolationmode none
attr title "packet popped, vector(packetBytes)"
vector 346 scenario.client[5].ppp[2].ppp.queue queueingTime:vector ETV
attr interpolationmode none
attr source queueingTime(packetPopped)
attr title "queueing times, vector"
attr unit s
vector 347 scenario.client[5].ppp[2].ppp txPk:vector(packetBytes) ETV
attr interpolationmode none
attr source packetSentToLower
attr title "packets transmitted, vector(packetBytes)"
vector 348 scenario.client[2].ppp[4].ppp rxPkOk:vector(packetBytes) ETV
attr interpolationmode none
attr source rxPkOk
attr title "packets received OK, vector(packetBytes)"
vector 349 scenario.client[2].ppp[4].ppp passedUpPk:vector(packetBytes) ETV
attr interpolationmode none
attr source packetSentToUpper
attr title "packets passed to higher layer, vector(packetBytes)"
vector 350 scenario.client[2].tcp.conn-66 rcvAdv:vector ETV
attr interpolationmode sample-hold
vector 351 scenario.client[2].tcp.conn-66 sndWnd:vector ETV
attr interpolationmode sample-hold
vector 352 scenario.client[2].tcp.conn-66 tcpRcvQueueBytes:vector ETV
attr interpolationmode sample-hold
vector 353 scenario.client[2].tcp.conn-66 rcvWnd:vector ETV
attr interpolationmode sample-hold
vector 354 scenario.client[2].tcp.conn-66 sndAck:vector ETV
attr interpolationmode sample-hold
vector 355 scenario.client[2].ppp[4].ppp rcvdPkFromHl:vector(packetBytes) ETV
attr interpolationmode none
attr source packetReceivedFromUpper
attr title "packets received from higher layer, vector(packetBytes)"
vector 356 scenario.client[2].ppp[4].ppp.queue packetPushed:vector(packetBytes) ETV
attr interpolationmode none
attr title "packet pushed, vector(packetBytes)"
vector 357 scenario.client[2].ppp[4].ppp.queue queueLength:vector ETV
attr interpolationmode sample-hold
attr source "count(packetPushed) - count(packetPopped) - count(packetRemoved) - count(packetDropped)"
attr title "queue length, vector"
vector 358 scenario.client[2].ppp[4].ppp.queue packetPopped:vector(packetBytes) ETV
attr interpolationmode none
attr title "packet popped, vector(packetBytes)"
vector 359 scenario.client[2].ppp[4].ppp.queue queueingTime:vector ETV
attr interpolationmode none
attr source queueingTime(packetPopped)
attr title "queueing times, vector"
attr unit s
vector 360 scenario.client[2].ppp[4].ppp txPk:vector(packetBytes) ETV
attr interpolationmode none
attr source packetSentToLower
attr title "packets transmitted, vector(packetBytes)"
vector 361 scenario.client[5].ppp[2].ppp rxPkOk:vector(packetBytes) ETV
attr interpolationmode none
attr source rxPkOk
attr title "packets received OK, vector(packetBytes)"
vector 362 scenario.client[5].ppp[2].ppp passedUpPk:vector(packetBytes) ETV
attr interpolationmode none
attr source packetSentToUpper
attr title "packets passed to higher layer, vector(packetBytes)"
vector 363 scenario.client[5].tcp.conn-65 rcvSeq:vector ETV
attr interpolationmode sample-hold
vector 364 scenario.client[5].tcp.conn-65 rcvAck:vector ETV
attr interpolationmode sample-hold
vector 365 scenario.client[5].tcp.conn-65 sndWnd:vector ETV
attr interpolationmode sample-hold
vector 366 scenario.client[5].tcp.conn-65 unacked:vector ETV
attr interpolationmode sample-hold
vector 367 scenario.client[0].tcp.conn-67 tcpRcvQueueBytes:vector ETV
attr interpolationmode sample-hold
vector 368 scenario.client[0].tcp.conn-67 rcvAdv:vector ETV
attr interpolationmode sample-hold
vector 369 scenario.client[0].tcp.conn-67 rcvWnd:vector ETV
attr interpolationmode sample-hold
vector 370 scenario.client[0].tcp.conn-67 sndAck:vector ETV
attr interpolationmode sample-hold
vector 371 scenario.client[0].ppp[3].ppp rcvdPkFromHl:vector(packetBytes) ETV
attr interpolationmode none
attr source packetReceivedFromUpper
attr title "packets received from higher layer, vector(packetBytes)"
vector 372 scenario.client[0].ppp[3].ppp.queue packetPushed:vector(packetBytes) ETV
attr interpolationmode none
attr title "packet pushed, vector(packetBytes)"
vector 373 scenario.client[0].ppp[3].ppp.queue queueLength:vector ETV
attr interpolationmode sample-hold
attr source "count(packetPushed) - count(packetPopped) - count(packetRemoved) - count(packetDropped)"
attr title "queue length, vector"
vector 374 scenario.client[0].ppp[3].ppp.queue packetPopped:vector(packetBytes) ETV
attr interpolationmode none
attr title "packet popped, vector(packetBytes)"
vector 375 scenario.client[0].ppp[3].ppp.queue queueingTime:vector ETV
attr interpolationmode none
attr source queueingTime(packetPopped)
attr title "queueing times, vector"
attr unit s
vector 376 scenario.client[0].ppp[3].ppp txPk:vector(packetBytes) ETV
attr interpolationmode none
attr source packetSentToLower
attr title "packets transmitted, vector(packetBytes)"
vector 377 scenario.client[2].tcp.conn-66 rcvSeq:vector ETV
attr interpolationmode sample-hold
vector 378 scenario.client[2].tcp.conn-66 rcvAck:vector ETV
attr interpolationmode sample-hold
vector 379 scenario.client[2].tcp.conn-66 unacked:vector ETV
attr interpolationmode sample-hold
vector 380 scenario.client[2].tcp.conn-66 cwnd:vector ETV
attr interpolationmode sample-hold
vector 381 scenario.client[2].tcp.conn-66 ssthresh:vector ETV
attr interpolationmode sample-hold
vector 382 scenario.client[2].tcp.conn-66 dupAcks:vector ETV
attr interpolationmode sample-hold
vector 383 scenario.client[4].ppp[0].ppp rxPkOk:vector(packetBytes) ETV
attr interpolationmode none
attr source rxPkOk
attr title "packets received OK, vector(packetBytes)"
vector 384 scenario.client[4].ppp[0].ppp passedUpPk:vector(packetBytes) ETV
attr interpolationmode none
attr source packetSentToUpper
attr title "packets passed to higher layer, vector(packetBytes)"
vector 385 scenario.client[4].tcp.conn-4 rcvSeq:vector ETV
attr interpolationmode sample-hold
vector 386 scenario.client[4].tcp.conn-4 rcvAck:vector ETV
attr interpolationmode sample-hold
vector 387 scenario.client[4].tcp.conn-68 rcvAdv:vector ETV
attr interpolationmode sample-hold
vector 388 scenario.client[4].tcp.conn-68 sndWnd:vector ETV
attr interpolationmode sample-hold
vector 389 scenario.client[4].tcp.conn-68 tcpRcvQueueBytes:vector ETV
attr interpolationmode sample-hold
vector 390 scenario.client[4].tcp.conn-68 rcvWnd:vector ETV
attr interpolationmode sample-hold
vector 391 scenario.client[4].tcp.conn-68 sndAck:vector ETV
attr interpolationmode sample-hold
vector 392 scenario.client[4].ppp[0].ppp rcvdPkFromHl:vector(packetBytes) ETV
attr interpolationmode none
attr source packetReceivedFromUpper
attr title "packets received from higher layer, vector(packetBytes)"
vector 393 scenario.client[4].ppp[0].ppp.queue packetPushed:vector(packetBytes) ETV
attr interpolationmode none
attr title "packet pushed, vector(packetBytes)"
vector 394 scenario.client[4].ppp[0].ppp.queue queueLength:vector ETV
attr interpolationmode sample-hold
attr source "count(packetPushed) - count(packetPopped) - count(packetRemoved) - count(packetDropped)"
attr title "queue length, vector"
vector 395 scenario.client[4].ppp[0].ppp.queue packetPopped:vector(packetBytes) ETV
attr interpolationmode none
attr title "packet popped, vector(packetBytes)"
vector 396 scenario.client[4].ppp[0].ppp.queue queueingTime:vector ETV
attr interpolationmode none
attr source queueingTime(packetPopped)
attr title "queueing times, vector"
attr unit s
vector 397 scenario.client[4].ppp[0].ppp txPk:vector(packetBytes) ETV
attr interpolationmode none
attr source packetSentToLower
attr title "packets transmitted, vector(packetBytes)"
vector 398 scenario.client[5].tcp.conn-65 rtt:vector ETV
attr interpolationmode sample-hold
vector 399 scenario.client[5].tcp.conn-65 srtt:vector ETV
attr interpolationmode sample-hold
vector 400 scenario.client[5].tcp.conn-65 rttvar:vector ETV
attr interpolationmode sample-hold
vector 401 scenario.client[5].tcp.conn-65 rto:vector ETV
attr interpolationmode sample-hold
vector 402 scenario.client[5].tcp.conn-65 cwnd:vector ETV
attr interpolationmode sample-hold
vector 403 scenario.client[5].tcp.conn-65 ssthresh:vector ETV
attr interpolationmode sample-hold
vector 404 scenario.client[5].tcp.conn-65 dupAcks:vector ETV
attr interpolationmode sample-hold
vector 405 scenario.client[0].ppp[3].ppp rxPkOk:vector(packetBytes) ETV
attr interpolationmode none
attr source rxPkOk
attr title "packets received OK, vector(packetBytes)"
vector 406 scenario.client[0].ppp[3].ppp passedUpPk:vector(packetBytes) ETV
attr interpolationmode none
attr source packetSentToUpper
attr title "packets passed to higher layer, vector(packetBytes)"
vector 407 scenario.client[0].tcp.conn-67 rcvSeq:vector ETV
attr interpolationmode sample-hold
vector 408 scenario.client[0].tcp.conn-67 rcvAck:vector ETV
attr interpolationmode sample-hold
vector 409 scenario.client[0].tcp.conn-67 sndWnd:vector ETV
attr interpolationmode sample-hold
vector 410 scenario.client[0].tcp.conn-67 unacked:vector ETV
attr interpolationmode sample-hold
vector 411 scenario.client[4].tcp.conn-68 rcvSeq:vector ETV
attr interpolationmode sample-hold
vector 412 scenario.client[4].tcp.conn-68 rcvAck:vector ETV
attr interpolationmode sample-hold
vector 413 scenario.client[4].tcp.conn-68 unacked:vector ETV
attr interpolationmode sample-hold
vector 414 scenario.client[4].tcp.conn-68 cwnd:vector ETV
attr interpolationmode sample-hold
vector 415 scenario.client[4].tcp.conn-68 ssthresh:vector ETV
attr interpolationmode sample-hold
vector 416 scenario.client[4].tcp.conn-68 dupAcks:vector ETV
attr interpolationmode sample-hold
vector 417 scenario.client[4].tcp.conn-69 tcpRcvQueueBytes:vector ETV
attr interpolationmode sample-hold
vector 418 scenario.client[4].tcp.conn-69 rcvAdv:vector ETV
attr interpolationmode sample-hold
vector 419 scenario.client[4].tcp.conn-69 rcvWnd:vector ETV
attr interpolationmode sample-hold
vector 420 scenario.client[4].tcp.conn-69 sndAck:vector ETV
attr interpolationmode sample-hold
vector 421 scenario.client[0].tcp.conn-67 rtt:vector ETV
attr interpolationmode sample-hold
vector 422 scenario.client[0].tcp.conn-67 srtt:vector ETV
attr interpolationmode sample-hold
vector 423 scenario.client[0].tcp.conn-67 rttvar:vector ETV
attr interpolationmode sample-hold
vector 424 scenario.client[0].tcp.conn-67 rto:vector ETV
attr interpolationmode sample-hold
vector 425 scenario.client[0].tcp.conn-67 cwnd:vector ETV
attr interpolationmode sample-hold
vector 426 scenario.client[0].tcp.conn-67 ssthresh:vector ETV
attr interpolationmode sample-hold
vector 427 scenario.client[0].tcp.conn-67 dupAcks:vector ETV
attr interpolationmode sample-hold
vector 428 scenario.client[0].tcp.conn-70 rcvAdv:vector ETV
attr interpolationmode sample-hold
vector 429 scenario.client[0].tcp.conn-70 sndWnd:vector ETV
attr interpolationmode sample-hold
vector 430 scenario.client[0].tcp.conn-70 tcpRcvQueueBytes:vector ETV
attr interpolationmode sample-hold
vector 431 scenario.client[0].tcp.conn-70 rcvWnd:vector ETV
attr interpolationmode sample-hold
vector 432 scenario.client[0].tcp.conn-70 sndAck:vector ETV
attr interpolationmode sample-hold
vector 433 scenario.client[4].tcp.conn-69 rcvSeq:vector ETV
attr interpolationmode sample-hold
vector 434 scenario.client[4].tcp.conn-69 rcvAck:vector ETV
attr interpolationmode sample-hold
vector 435 scenario.client[4].tcp.conn-69 sndWnd:vector ETV
attr interpolationmode sample-hold
vector 436 scenario.client[4].tcp.conn-69 unacked:vector ETV
attr interpolationmode sample-hold
vector 437 scenario.client[0].tcp.conn-70 rcvSeq:vector ETV
attr interpolationmode sample-hold
vector 438 scenario.client[0].tcp.conn-70 rcvAck:vector ETV
attr interpolationmode sample-hold
vector 439 scenario.client[0].tcp.conn-70 unacked:vector ETV
attr interpolationmode sample-hold
vector 440 scenario.client[0].tcp.conn-70 cwnd:vector ETV
attr interpolationmode sample-hold
vector 441 scenario.client[0].tcp.conn-70 ssthresh:vector ETV
attr interpolationmode sample-hold
vector 442 scenario.client[0].tcp.conn-70 dupAcks:vector ETV
attr interpolationmode sample-hold
vector 443 scenario.client[4].tcp.conn-69 rtt:vector ETV
attr interpolationmode sample-hold
vector 444 scenario.client[4].tcp.conn-69 srtt:vector ETV
attr interpolationmode sample-hold
vector 445 scenario.client[4].tcp.conn-69 rttvar:vector ETV
attr interpolationmode sample-hold
vector 446 scenario.client[4].tcp.conn-69 rto:vector ETV
attr interpolationmode sample-hold
vector 447 scenario.client[4].tcp.conn-69 cwnd:vector ETV
attr interpolationmode sample-hold
vector 448 scenario.client[4].tcp.conn-69 ssthresh:vector ETV
attr interpolationmode sample-hold
vector 449 scenario.client[4].tcp.conn-69 dupAcks:vector ETV
attr interpolationmode sample-hold
vector 450 scenario.client[1].tcp.conn-71 tcpRcvQueueBytes:vector ETV
attr interpolationmode sample-hold
vector 451 scenario.client[1].tcp.conn-71 rcvAdv:vector ETV
attr interpolationmode sample-hold
vector 452 scenario.client[1].tcp.conn-71 rcvWnd:vector ETV
attr interpolationmode sample-hold
vector 453 scenario.client[1].tcp.conn-71 sndAck:vector ETV
attr interpolationmode sample-hold
vector 454 scenario.client[5].tcp.conn-5 rcvSeq:vector ETV
attr interpolationmode sample-hold
vector 455 scenario.client[5].tcp.conn-5 rcvAck:vector ETV
attr interpolationmode sample-hold
vector 456 scenario.client[5].tcp.conn-72 rcvAdv:vector ETV
attr interpolationmode sample-hold
vector 457 scenario.client[5].tcp.conn-72 sndWnd:vector ETV
attr interpolationmode sample-hold
vector 458 scenario.client[5].tcp.conn-72 tcpRcvQueueBytes:vector ETV
attr interpolationmode sample-hold
vector 459 scenario.client[5].tcp.conn-72 rcvWnd:vector ETV
attr interpolationmode sample-hold
vector 460 scenario.client[5].tcp.conn-72 sndAck:vector ETV
attr interpolationmode sample-hold
vector 461 scenario.client[1].tcp.conn-71 rcvSeq:vector ETV
attr interpolationmode sample-hold
vector 462 scenario.client[1].tcp.conn-71 rcvAck:vector ETV
attr interpolationmode sample-hold
vector 463 scenario.client[1].tcp.conn-71 sndWnd:vector ETV
attr interpolationmode sample-hold
vector 464 scenario.client[1].tcp.conn-71 unacked:vector ETV
attr interpolationmode sample-hold
vector 465 scenario.client[5].tcp.conn-72 rcvSeq:vector ETV
attr interpolationmode sample-hold
vector 466 scenario.client[5].tcp.conn-72 rcvAck:vector ETV
attr interpolationmode sample-hold
vector 467 scenario.client[5].tcp.conn-72 unacked:vector ETV
attr interpolationmode sample-hold
vector 468 scenario.client[5].tcp.conn-72 cwnd:vector ETV
attr interpolationmode sample-hold
vector 469 scenario.client[5].tcp.conn-72 ssthresh:vector ETV
attr interpolationmode sample-hold
vector 470 scenario.client[5].tcp.conn-72 dupAcks:vector ETV
attr interpolationmode sample-hold
vector 471 scenario.client[1].tcp.conn-71 rtt:vector ETV
attr interpolationmode sample-hold
vector 472 scenario.client[1].tcp.conn-71 srtt:vector ETV
attr interpolationmode sample-hold
vector 473 scenario.client[1].tcp.conn-71 rttvar:vector ETV
attr interpolationmode sample-hold
vector 474 scenario.client[1].tcp.conn-71 rto:vector ETV
attr interpolationmode sample-hold
vector 475 scenario.client[1].tcp.conn-71 cwnd:vector ETV
attr interpolationmode sample-hold
vector 476 scenario.client[1].tcp.conn-71 ssthresh:vector ETV
attr interpolationmode sample-hold
vector 477 scenario.client[1].tcp.conn-71 dupAcks:vector ETV
attr interpolationmode sample-hold
vector 478 scenario.client[0].tcp.conn-73 tcpRcvQueueBytes:vector ETV
attr interpolationmode sample-hold
vector 479 scenario.client[0].tcp.conn-73 rcvAdv:vector ETV
attr interpolationmode sample-hold
vector 480 scenario.client[0].tcp.conn-73 rcvWnd:vector ETV
attr interpolationmode sample-hold
vector 481 scenario.client[0].tcp.conn-73 sndAck:vector ETV
attr interpolationmode sample-hold
vector 482 scenario.client[5].tcp.conn-74 rcvAdv:vector ETV
attr interpolationmode sample-hold
vector 483 scenario.client[5].tcp.conn-74 sndWnd:vector ETV
attr interpolationmode sample-hold
vector 484 scenario.client[5].tcp.conn-74 tcpRcvQueueBytes:vector ETV
attr interpolationmode sample-hold
vector 485 scenario.client[5].tcp.conn-74 rcvWnd:vector ETV
attr interpolationmode sample-hold
vector 486 scenario.client[5].tcp.conn-74 sndAck:vector ETV
attr interpolationmode sample-hold
vector 487 scenario.client[0].tcp.conn-73 rcvSeq:vector ETV
attr interpolationmode sample-hold
vector 488 scenario.client[0].tcp.conn-73 rcvAck:vector ETV
attr interpolationmode sample-hold
vector 489 scenario.client[0].tcp.conn-73 sndWnd:vector ETV
attr interpolationmode sample-hold
vector 490 scenario.client[0].tcp.conn-73 unacked:vector ETV
attr interpolationmode sample-hold
vector 491 scenario.client[5].tcp.conn-74 rcvSeq:vector ETV
attr interpolationmode sample-hold
vector 492 scenario.client[5].tcp.conn-74 rcvAck:vector ETV
attr interpolationmode sample-hold
vector 493 scenario.client[5].tcp.conn-74 unacked:vector ETV
attr interpolationmode sample-hold
vector 494 scenario.client[5].tcp.conn-74 cwnd:vector ETV
attr interpolationmode sample-hold
vector 495 scenario.client[5].tcp.conn-74 ssthresh:vector ETV
attr interpolationmode sample-hold
vector 496 scenario.client[5].tcp.conn-74 dupAcks:vector ETV
attr interpolationmode sample-hold
vector 497 scenario.client[0].tcp.conn-73 rtt:vector ETV
attr interpolationmode sample-hold
vector 498 scenario.client[0].tcp.conn-73 srtt:vector ETV
attr interpolationmode sample-hold
vector 499 scenario.client[0].tcp.conn-73 rttvar:vector ETV
attr interpolationmode sample-hold
vector 500 scenario.client[0].tcp.conn-73 rto:vector ETV
attr interpolationmode sample-hold
vector 501 scenario.client[0].tcp.conn-73 cwnd:vector ETV
attr interpolationmode sample-hold
vector 502 scenario.client[0].tcp.conn-73 ssthresh:vector ETV
attr interpolationmode sample-hold
vector 503 scenario.client[0].tcp.conn-73 dupAcks:vector ETV
attr interpolationmode sample-hold
vector 504 scenario.client[2].tcp.conn-75 tcpRcvQueueBytes:vector ETV
attr interpolationmode sample-hold
vector 505 scenario.client[2].tcp.conn-75 rcvAdv:vector ETV
attr interpolationmode sample-hold
vector 506 scenario.client[2].tcp.conn-75 rcvWnd:vector ETV
attr interpolationmode sample-hold
vector 507 scenario.client[2].tcp.conn-75 sndAck:vector ETV
attr interpolationmode sample-hold
vector 508 scenario.client[5].tcp.conn-76 rcvAdv:vector ETV
attr interpolationmode sample-hold
vector 509 scenario.client[5].tcp.conn-76 sndWnd:vector ETV
attr interpolationmode sample-hold
vector 510 scenario.client[5].tcp.conn-76 tcpRcvQueueBytes:vector ETV
attr interpolationmode sample-hold
vector 511 scenario.client[5].tcp.conn-76 rcvWnd:vector ETV
attr interpolationmode sample-hold
vector 512 scenario.client[5].tcp.conn-76 sndAck:vector ETV
attr interpolationmode sample-hold
vector 513 scenario.client[2].tcp.conn-75 rcvSeq:vector ETV
attr interpolationmode sample-hold
vector 514 scenario.client[2].tcp.conn-75 rcvAck:vector ETV
attr interpolationmode sample-hold
vector 515 scenario.client[2].tcp.conn-75 sndWnd:vector ETV
attr interpolationmode sample-hold
vector 516 scenario.client[2].tcp.conn-75 unacked:vector ETV
attr interpolationmode sample-hold
vector 517 scenario.client[5].tcp.conn-76 rcvSeq:vector ETV
attr interpolationmode sample-hold
vector 518 scenario.client[5].tcp.conn-76 rcvAck:vector ETV
attr interpolationmode sample-hold
vector 519 scenario.client[5].tcp.conn-76 unacked:vector ETV
attr interpolationmode sample-hold
vector 520 scenario.client[5].tcp.conn-76 cwnd:vector ETV
attr interpolationmode sample-hold
vector 521 scenario.client[5].tcp.conn-76 ssthresh:vector ETV
attr interpolationmode sample-hold
vector 522 scenario.client[5].tcp.conn-76 dupAcks:vector ETV
attr interpolationmode sample-hold
vector 523 scenario.client[2].tcp.conn-75 rtt:vector ETV
attr interpolationmode sample-hold
vector 524 scenario.client[2].tcp.conn-75 srtt:vector ETV
attr interpolationmode sample-hold
vector 525 scenario.client[2].tcp.conn-75 rttvar:vector ETV
attr interpolationmode sample-hold
vector 526 scenario.client[2].tcp.conn-75 rto:vector ETV
attr interpolationmode sample-hold
vector 527 scenario.client[2].tcp.conn-75 cwnd:vector ETV
attr interpolationmode sample-hold
vector 528 scenario.client[2].tcp.conn-75 ssthresh:vector ETV
attr interpolationmode sample-hold
vector 529 scenario.client[2].tcp.conn-75 dupAcks:vector ETV
attr interpolationmode sample-hold
vector 530 scenario.client[5].tcp.conn-77 tcpRcvQueueBytes:vector ETV
attr interpolationmode sample-hold
vector 531 scenario.client[5].tcp.conn-77 rcvAdv:vector ETV
attr interpolationmode sample-hold
vector 532 scenario.client[5].tcp.conn-77 rcvWnd:vector ETV
attr interpolationmode sample-hold
vector 533 scenario.client[5].tcp.conn-77 sndAck:vector ETV
attr interpolationmode sample-hold
vector 534 scenario.client[5].ppp[3].ppp rcvdPkFromHl:vector(packetBytes) ETV
attr interpolationmode none
attr source packetReceivedFromUpper
attr title "packets received from higher layer, vector(packetBytes)"
vector 535 scenario.client[5].ppp[3].ppp.queue packetPushed:vector(packetBytes) ETV
attr interpolationmode none
attr title "packet pushed, vector(packetBytes)"
vector 536 scenario.client[5].ppp[3].ppp.queue queueLength:vector ETV
attr interpolationmode sample-hold
attr source "count(packetPushed) - count(packetPopped) - count(packetRemoved) - count(packetDropped)"
attr title "queue length, vector"
vector 537 scenario.client[5].ppp[3].ppp.queue packetPopped:vector(packetBytes) ETV
attr interpolationmode none
attr title "packet popped, vector(packetBytes)"
vector 538 scenario.client[5].ppp[3].ppp.queue queueingTime:vector ETV
attr interpolationmode none
attr source queueingTime(packetPopped)
attr title "queueing times, vector"
attr unit s
vector 539 scenario.client[5].ppp[3].ppp txPk:vector(packetBytes) ETV
attr interpolationmode none
attr source packetSentToLower
attr title "packets transmitted, vector(packetBytes)"
vector 540 scenario.client[3].ppp[4].ppp rxPkOk:vector(packetBytes) ETV
attr interpolationmode none
attr source rxPkOk
attr title "packets received OK, vector(packetBytes)"
vector 541 scenario.client[3].ppp[4].ppp passedUpPk:vector(packetBytes) ETV
attr interpolationmode none
attr source packetSentToUpper
attr title "packets passed to higher layer, vector(packetBytes)"
vector 542 scenario.client[3].tcp.conn-78 rcvAdv:vector ETV
attr interpolationmode sample-hold
vector 543 scenario.client[3].tcp.conn-78 sndWnd:vector ETV
attr interpolationmode sample-hold
vector 544 scenario.client[3].tcp.conn-78 tcpRcvQueueBytes:vector ETV
attr interpolationmode sample-hold
vector 545 scenario.client[3].tcp.conn-78 rcvWnd:vector ETV
attr interpolationmode sample-hold
vector 546 scenario.client[3].tcp.conn-78 sndAck:vector ETV
attr interpolationmode sample-hold
vector 547 scenario.client[3].ppp[4].ppp rcvdPkFromHl:vector(packetBytes) ETV
attr interpolationmode none
attr source packetReceivedFromUpper
attr title "packets received from higher layer, vector(packetBytes)"
vector 548 scenario.client[3].ppp[4].ppp.queue packetPushed:vector(packetBytes) ETV
attr interpolationmode none
attr title "packet pushed, vector(packetBytes)"
vector 549 scenario.client[3].ppp[4].ppp.queue queueLength:vector ETV
attr interpolationmode sample-hold
attr source "count(packetPushed) - count(packetPopped) - count(packetRemoved) - count(packetDropped)"
attr title "queue length, vector"
vector 550 scenario.client[3].ppp[4].ppp.queue packetPopped:vector(packetBytes) ETV
attr interpolationmode none
attr title "packet popped, vector(packetBytes)"
vector 551 scenario.client[3].ppp[4].ppp.queue queueingTime:vector ETV
attr interpolationmode none
attr source queueingTime(packetPopped)
attr title "queueing times, vector"
attr unit s
vector 552 scenario.client[3].ppp[4].ppp txPk:vector(packetBytes) ETV
attr interpolationmode none
attr source packetSentToLower
attr title "packets transmitted, vector(packetBytes)"
vector 553 scenario.client[5].ppp[3].ppp rxPkOk:vector(packetBytes) ETV
attr interpolationmode none
attr source rxPkOk
attr title "packets received OK, vector(packetBytes)"
vector 554 scenario.client[5].ppp[3].ppp passedUpPk:vector(packetBytes) ETV
attr interpolationmode none
attr source packetSentToUpper
attr title "packets passed to higher layer, vector(packetBytes)"
vector 555 scenario.client[5].tcp.conn-77 rcvSeq:vector ETV
attr interpolationmode sample-hold
vector 556 scenario.client[5].tcp.conn-77 rcvAck:vector ETV
attr interpolationmode sample-hold
vector 557 scenario.client[5].tcp.conn-77 sndWnd:vector ETV
attr interpolationmode sample-hold
vector 558 scenario.client[5].tcp.conn-77 unacked:vector ETV
attr interpolationmode sample-hold
vector 559 scenario.client[3].tcp.conn-78 rcvSeq:vector ETV
attr interpolationmode sample-hold
vector 560 scenario.client[3].tcp.conn-78 rcvAck:vector ETV
attr interpolationmode sample-hold
vector 561 scenario.client[3].tcp.conn-78 unacked:vector ETV
attr interpolationmode sample-hold
vector 562 scenario.client[3].tcp.conn-78 cwnd:vector ETV
attr interpolationmode sample-hold
vector 563 scenario.client[3].tcp.conn-78 ssthresh:vector ETV
attr interpolationmode sample-hold
vector 564 scenario.client[3].tcp.conn-78 dupAcks:vector ETV
attr interpolationmode sample-hold
vector 565 scenario.client[5].tcp.conn-77 rtt:vector ETV
attr interpolationmode sample-hold
vector 566 scenario.client[5].tcp.conn-77 srtt:vector ETV
attr interpolationmode sample-hold
vector 567 scenario.client[5].tcp.conn-77 rttvar:vector ETV
attr interpolationmode sample-hold
vector 568 scenario.client[5].tcp.conn-77 rto:vector ETV
attr interpolationmode sample-hold
vector 569 scenario.client[5].tcp.conn-77 cwnd:vector ETV
attr interpolationmode sample-hold
vector 570 scenario.client[5].tcp.conn-77 ssthresh:vector ETV
attr interpolationmode sample-hold
vector 571 scenario.client[5].tcp.conn-77 dupAcks:vector ETV
attr interpolationmode sample-hold
vector 572 scenario.client[5].tcp.conn-79 tcpRcvQueueBytes:vector ETV
attr interpolationmode sample-hold
vector 573 scenario.client[5].tcp.conn-79 rcvAdv:vector ETV
attr interpolationmode sample-hold
vector 574 scenario.client[5].tcp.conn-79 rcvWnd:vector ETV
attr interpolationmode sample-hold
vector 575 scenario.client[5].tcp.conn-79 sndAck:vector ETV
attr interpolationmode sample-hold
vector 576 scenario.client[5].ppp[4].ppp rcvdPkFromHl:vector(packetBytes) ETV
attr interpolationmode none
attr source packetReceivedFromUpper
attr title "packets received from higher layer, vector(packetBytes)"
vector 577 scenario.client[5].ppp[4].ppp.queue packetPushed:vector(packetBytes) ETV
attr interpolationmode none
attr title "packet pushed, vector(packetBytes)"
vector 578 scenario.client[5].ppp[4].ppp.queue queueLength:vector ETV
attr interpolationmode sample-hold
attr source "count(packetPushed) - count(packetPopped) - count(packetRemoved) - count(packetDropped)"
attr title "queue length, vector"
vector 579 scenario.client[5].ppp[4].ppp.queue packetPopped:vector(packetBytes) ETV
attr interpolationmode none
attr title "packet popped, vector(packetBytes)"
vector 580 scenario.client[5].ppp[4].ppp.queue queueingTime:vector ETV
attr interpolationmode none
attr source queueingTime(packetPopped)
attr title "queueing times, vector"
attr unit s
vector 581 scenario.client[5].ppp[4].ppp txPk:vector(packetBytes) ETV
attr interpolationmode none
attr source packetSentToLower
attr title "packets transmitted, vector(packetBytes)"
vector 582 scenario.client[4].ppp[4].ppp rxPkOk:vector(packetBytes) ETV
attr interpolationmode none
attr source rxPkOk
attr title "packets received OK, vector(packetBytes)"
vector 583 scenario.client[4].ppp[4].ppp passedUpPk:vector(packetBytes) ETV
attr interpolationmode none
attr source packetSentToUpper
attr title "packets passed to higher layer, vector(packetBytes)"
vector 584 scenario.client[4].tcp.conn-80 rcvAdv:vector ETV
attr interpolationmode sample-hold
vector 585 scenario.client[4].tcp.conn-80 sndWnd:vector ETV
attr interpolationmode sample-hold
vector 586 scenario.client[4].tcp.conn-80 tcpRcvQueueBytes:vector ETV
attr interpolationmode sample-hold
vector 587 scenario.client[4].tcp.conn-80 rcvWnd:vector ETV
attr interpolationmode sample-hold
vector 588 scenario.client[4].tcp.conn-80 sndAck:vector ETV
attr interpolationmode sample-hold
vector 589 scenario.client[4].ppp[4].ppp rcvdPkFromHl:vector(packetBytes) ETV
attr interpolationmode none
attr source packetReceivedFromUpper
attr title "packets received from higher layer, vector(packetBytes)"
vector 590 scenario.client[4].ppp[4].ppp.queue packetPushed:vector(packetBytes) ETV
attr interpolationmode none
attr title "packet pushed, vector(packetBytes)"
vector 591 scenario.client[4].ppp[4].ppp.queue queueLength:vector ETV
attr interpolationmode sample-hold
attr source "count(packetPushed) - count(packetPopped) - count(packetRemoved) - count(packetDropped)"
attr title "queue length, vector"
vector 592 scenario.client[4].ppp[4].ppp.queue packetPopped:vector(packetBytes) ETV
attr interpolationmode none
attr title "packet popped, vector(packetBytes)"
vector 593 scenario.client[4].ppp[4].ppp.queue queueingTime:vector ETV
attr interpolationmode none
attr source queueingTime(packetPopped)
attr title "queueing times, vector"
attr unit s
vector 594 scenario.client[4].ppp[4].ppp txPk:vector(packetBytes) ETV
attr interpolationmode none
attr source packetSentToLower
attr title "packets transmitted, vector(packetBytes)"
vector 595 scenario.client[5].ppp[4].ppp rxPkOk:vector(packetBytes) ETV
attr interpolationmode none
attr source rxPkOk
attr title "packets received OK, vector(packetBytes)"
vector 596 scenario.client[5].ppp[4].ppp passedUpPk:vector(packetBytes) ETV
attr interpolationmode none
attr source packetSentToUpper
attr title "packets passed to higher layer, vector(packetBytes)"
vector 597 scenario.client[5].tcp.conn-79 rcvSeq:vector ETV
attr interpolationmode sample-hold
vector 598 scenario.client[5].tcp.conn-79 rcvAck:vector ETV
attr interpolationmode sample-hold
vector 599 scenario.client[5].tcp.conn-79 sndWnd:vector ETV
attr interpolationmode sample-hold
vector 600 scenario.client[5].tcp.conn-79 unacked:vector ETV
attr interpolationmode sample-hold
vector 601 scenario.client[4].tcp.conn-80 rcvSeq:vector ETV
attr interpolationmode sample-hold
vector 602 scenario.client[4].tcp.conn-80 rcvAck:vector ETV
attr interpolationmode sample-hold
vector 603 scenario.client[4].tcp.conn-80 unacked:vector ETV
attr interpolationmode sample-hold
vector 604 scenario.client[4].tcp.conn-80 cwnd:vector ETV
attr interpolationmode sample-hold
vector 605 scenario.client[4].tcp.conn-80 ssthresh:vector ETV
attr interpolationmode sample-hold
vector 606 scenario.client[4].tcp.conn-80 dupAcks:vector ETV
attr interpolationmode sample-hold
vector 607 scenario.client[5].tcp.conn-79 rtt:vector ETV
attr interpolationmode sample-hold
vector 608 scenario.client[5].tcp.conn-79 srtt:vector ETV
attr interpolationmode sample-hold
vector 609 scenario.client[5].tcp.conn-79 rttvar:vector ETV
attr interpolationmode sample-hold
vector 610 scenario.client[5].tcp.conn-79 rto:vector ETV
attr interpolationmode sample-hold
vector 611 scenario.client[5].tcp.conn-79 cwnd:vector ETV
attr interpolationmode sample-hold
vector 612 scenario.client[5].tcp.conn-79 ssthresh:vector ETV
attr interpolationmode sample-hold
vector 613 scenario.client[5].tcp.conn-79 dupAcks:vector ETV
attr interpolationmode sample-hold
vector 614 scenario.client[0].tcp.conn-81 tcpRcvQueueBytes:vector ETV
attr interpolationmode sample-hold
vector 615 scenario.client[0].tcp.conn-81 rcvAdv:vector ETV
attr interpolationmode sample-hold
vector 616 scenario.client[0].tcp.conn-81 rcvWnd:vector ETV
attr interpolationmode sample-hold
vector 617 scenario.client[0].tcp.conn-81 sndAck:vector ETV
attr interpolationmode sample-hold
vector 618 scenario.client[0].ppp[5].ppp rcvdPkFromHl:vector(packetBytes) ETV
attr interpolationmode none
attr source packetReceivedFromUpper
attr title "packets received from higher layer, vector(packetBytes)"
vector 619 scenario.client[0].ppp[5].ppp.queue packetPushed:vector(packetBytes) ETV
attr interpolationmode none
attr title "packet pushed, vector(packetBytes)"
vector 620 scenario.client[0].ppp[5].ppp.queue queueLength:vector ETV
attr interpolationmode sample-hold
attr source "count(packetPushed) - count(packetPopped) - count(packetRemoved) - count(packetDropped)"
attr title "queue length, vector"
vector 621 scenario.client[0].ppp[5].ppp.queue packetPopped:vector(packetBytes) ETV
attr interpolationmode none
attr title "packet popped, vector(packetBytes)"
vector 622 scenario.client[0].ppp[5].ppp.queue queueingTime:vector ETV
attr interpolationmode none
attr source queueingTime(packetPopped)
attr title "queueing times, vector"
attr unit s
vector 623 scenario.client[0].ppp[5].ppp txPk:vector(packetBytes) ETV
attr interpolationmode none
attr source packetSentToLower
attr title "packets transmitted, vector(packetBytes)"
vector 624 scenario.client[6].ppp[0].ppp rxPkOk:vector(packetBytes) ETV
attr interpolationmode none
attr source rxPkOk
attr title "packets received OK, vector(packetBytes)"
vector 625 scenario.client[6].ppp[0].ppp passedUpPk:vector(packetBytes) ETV
attr interpolationmode none
attr source packetSentToUpper
attr title "packets passed to higher layer, vector(packetBytes)"
vector 626 scenario.client[6].tcp.conn-6 rcvSeq:vector ETV
attr interpolationmode sample-hold
vector 627 scenario.client[6].tcp.conn-6 rcvAck:vector ETV
attr interpolationmode sample-hold
vector 628 scenario.client[6].tcp.conn-82 rcvAdv:vector ETV
attr interpolationmode sample-hold
vector 629 scenario.client[6].tcp.conn-82 sndWnd:vector ETV
attr interpolationmode sample-hold
vector 630 scenario.client[6].tcp.conn-82 tcpRcvQueueBytes:vector ETV
attr interpolationmode sample-hold
vector 631 scenario.client[6].tcp.conn-82 rcvWnd:vector ETV
attr interpolationmode sample-hold
vector 632 scenario.client[6].tcp.conn-82 sndAck:vector ETV
attr interpolationmode sample-hold
vector 633 scenario.client[6].ppp[0].ppp rcvdPkFromHl:vector(packetBytes) ETV
attr interpolationmode none
attr source packetReceivedFromUpper
attr title "packets received from higher layer, vector(packetBytes)"
vector 634 scenario.client[6].ppp[0].ppp.queue packetPushed:vector(packetBytes) ETV
attr interpolationmode none
attr title "packet pushed, vector(packetBytes)"
vector 635 scenario.client[6].ppp[0].ppp.queue queueLength:vector ETV
attr interpolationmode sample-hold
attr source "count(packetPushed) - count(packetPopped) - count(packetRemoved) - count(packetDropped)"
attr title "queue length, vector"
vector 636 scenario.client[6].ppp[0].ppp.queue packetPopped:vector(packetBytes) ETV
attr interpolationmode none
attr title "packet popped, vector(packetBytes)"
vector 637 scenario.client[6].ppp[0].ppp.queue queueingTime:vector ETV
attr interpolationmode none
attr source queueingTime(packetPopped)
[...]
1266	2416690 1483 1343 19814 4.619169387982 71.368466351149 42 1162070 1162112 48807798 56719074902248
1267	2418173 62 1343 1356 4.619169387982 4.620961387982 2 7504 7504 15008 112620032
1268	2418235 2378 1343 19814 4.619169387982 71.368466351149 81 0 1 1 1
1269	2420613 1326 1343 19814 4.619169387982 71.368466351149 41 7503 7504 307663 2308695649
1270	2421939 1449 1343 19814 4.619169387982 71.368466351149 41 1154566 1154608 47338065 54655912151313
1271	2423388 2335 1345 19817 4.619169387982 71.368466351149 77 40 44 3125 126873
1272	2425723 2335 1345 19817 4.619169387982 71.368466351149 77 40 44 3125 126873
1273	2428058 4516 1345 19817 4.619169387982 71.368466351149 154 0 1 77 77
1274	2432574 2335 1345 19817 4.619169387982 71.368466351149 77 40 44 3125 126873
1275	2434909 2307 1345 19817 4.619169387982 71.368466351149 77 0 0.000376 0.002632 9.89632e-007
1276	2437216 2335 1345 19817 4.619169387982 71.368466351149 77 47 51 3664 174396
1277	2439551 2335 1347 19819 4.620077387982 71.369342351149 77 47 51 3664 174396
1278	2441886 2335 1347 19819 4.620077387982 71.369342351149 77 40 44 3125 126873
1279	2444221 1449 1349 19821 4.620077387982 71.369342351149 41 1154792 1154793 47346512 54675419477224
1280	2445670 1449 1349 19821 4.620077387982 71.369342351149 41 1154566 1154608 47338065 54655912151313
1281	2447119 1326 1349 19821 4.620077387982 71.369342351149 41 7503 7504 307663 2308695649
1282	2448445 2350 1349 19821 4.620077387982 71.369342351149 80 0 2 42 46
1283	2450795 1415 1356 19814 4.620961387982 71.368466351149 40 1154566 1154607 46183457 53322792517649
1284	2452210 1415 1356 19814 4.620961387982 71.368466351149 40 1154793 1154793 46191720 53341874913960
1285	2453625 28 1356 1356 4.620961387982 4.620961387982 1 0 0 0 0
1286	2453653 31 1356 1356 4.620961387982 4.620961387982 1 1072 1072 1072 1149184
1287	2453684 37 1356 1356 4.620961387982 4.620961387982 1 4294967295 4294967295 4294967295 1.844674406512e+019
1288	2453721 1175 1356 19814 4.620961387982 71.368466351149 40 0 0 0 0
1289	2454896 1425 1366 19821 4.621837387982 71.369342351149 40 0.00176 0.002144 0.0738 0.000137150528
1290	2456321 1677 1366 19821 4.621837387982 71.369342351149 40 0.00022 0.001868317785 0.061216718449 0.00010091605487153
1291	2457998 1677 1366 19821 4.621837387982 71.369342351149 40 0.003709623143 0.65647 5.240531828895 1.8429929818267
1292	2459675 1264 1366 19821 4.621837387982 71.369342351149 40 1 2.6261 45.808842735886 58.005622614203
1293	2460939 1295 1366 19821 4.621837387982 71.369342351149 40 1072 2680 51456 71824000
1294	2462234 1535 1366 19821 4.621837387982 71.369342351149 40 4294967295 4294967295 171798691800 7.3786976260478e+020
1295	2463769 1175 1366 19821 4.621837387982 71.369342351149 40 0 0 0 0
1296	2464944 1205 1488 19853 5.101573867001 71.680973873107 41 0 0 0 0
1297	2466149 1482 1488 19853 5.101573867001 71.680973873107 42 7504 1283125 52615629 67502856700641
1298	2467631 1328 1488 19853 5.101573867001 71.680973873107 41 7504 7504 307664 2308710656
1299	2468959 1445 1488 19853 5.101573867001 71.680973873107 41 0 1275621 51024840 65088357425640
1300	2470404 2280 1491 19855 5.101573867001 71.680973873107 75 40 44 3050 124078
1301	2472684 2280 1491 19855 5.101573867001 71.680973873107 75 40 44 3050 124078
1302	2474964 4410 1491 19855 5.101573867001 71.680973873107 150 0 1 75 75
1303	2479374 2280 1491 19855 5.101573867001 71.680973873107 75 40 44 3050 124078
1304	2481654 2261 1491 19855 5.101573867001 71.680973873107 75 0 0.000376 0.003008 1.131008e-006
1305	2483915 2280 1491 19855 5.101573867001 71.680973873107 75 47 51 3575 170453
1306	2486195 2280 1493 19857 5.102481867001 71.681857873107 75 47 51 3575 170453
1307	2488475 2280 1493 19857 5.102481867001 71.681857873107 75 40 44 3050 124078
1308	2490755 1485 1495 19859 5.102481867001 71.681857873107 42 1282898 1282940 53882574 69126947170264
1309	2492240 62 1495 1508 5.102481867001 5.104273867001 2 7504 7504 15008 112620032
1310	2492302 2382 1495 19859 5.102481867001 71.681857873107 81 0 1 1 1
1311	2494684 1328 1495 19859 5.102481867001 71.681857873107 41 7503 7504 307663 2308695649
1312	2496012 1451 1495 19859 5.102481867001 71.681857873107 41 1275394 1275436 52292013 66694015215897
1313	2497463 2280 1497 19862 5.102481867001 71.681857873107 75 40 44 3043 123511
1314	2499743 2280 1497 19862 5.102481867001 71.681857873107 75 40 44 3043 123511
1315	2502023 4410 1497 19862 5.102481867001 71.681857873107 150 0 1 75 75
1316	2506433 2280 1497 19862 5.102481867001 71.681857873107 75 40 44 3043 123511
1317	2508713 2247 1497 19862 5.102481867001 71.681857873107 75 0 0.000376 0.002256 8.48256e-007
1318	2510960 2280 1497 19862 5.102481867001 71.681857873107 75 47 51 3568 169788
1319	2513240 2280 1499 19864 5.103389867001 71.682733873107 75 47 51 3568 169788
1320	2515520 2280 1499 19864 5.103389867001 71.682733873107 75 40 44 3043 123511
1321	2517800 1451 1501 19866 5.103389867001 71.682733873107 41 1275620 1275621 52300460 66715563810040
1322	2519251 1451 1501 19866 5.103389867001 71.682733873107 41 1275394 1275436 52292013 66694015215897
1323	2520702 1328 1501 19866 5.103389867001 71.682733873107 41 7503 7504 307663 2308695649
1324	2522030 2354 1501 19866 5.103389867001 71.682733873107 80 0 2 42 46
1325	2524384 1417 1508 19859 5.104273867001 71.681857873107 40 1275394 1275435 51016577 65067278225801
1326	2525801 1417 1508 19859 5.104273867001 71.681857873107 40 1275621 1275621 51024840 65088357425640
1327	2527218 28 1508 1508 5.104273867001 5.104273867001 1 0 0 0 0
1328	2527246 31 1508 1508 5.104273867001 5.104273867001 1 1072 1072 1072 1149184
1329	2527277 37 1508 1508 5.104273867001 5.104273867001 1 4294967295 4294967295 4294967295 1.844674406512e+019
1330	2527314 1177 1508 19859 5.104273867001 71.681857873107 40 0 0 0 0
1331	2528491 1427 1518 19866 5.105149867001 71.682733873107 40 0.00176 0.002136 0.073424 0.000135679616
1332	2529918 1681 1518 19866 5.105149867001 71.682733873107 40 0.00022 0.001872190454 0.060865134619 9.9720181614411e-005
1333	2531599 1679 1518 19866 5.105149867001 71.682733873107 40 0.003705906551 0.65647 5.240415788485 1.8429701843542
1334	2533278 1266 1518 19866 5.105149867001 71.682733873107 40 1 2.6261 45.809058007634 58.00650432578
1335	2534544 1297 1518 19866 5.105149867001 71.682733873107 40 1072 2144 49848 65790784
1336	2535841 1537 1518 19866 5.105149867001 71.682733873107 40 4294967295 4294967295 171798691800 7.3786976260478e+020
1337	2537378 1177 1518 19866 5.105149867001 71.682733873107 40 0 0 0 0
1338	2538555 1000 1520 19143 5.112131107518 65.643871484361 34 0 0 0 0
1339	2539555 1235 1520 19143 5.112131107518 65.643871484361 35 7504 1285764 43723480 56208484475680
1340	2540790 1102 1520 19143 5.112131107518 65.643871484361 34 7504 7504 255136 1914540544
1341	2541892 1198 1520 19143 5.112131107518 65.643871484361 34 0 1278260 42182580 53920304710800
1342	2543090 1238 1527 19153 5.113039107518 65.645131484361 35 1285537 1285572 44994384 57842702619368
1343	2544328 62 1527 1540 5.113039107518 5.114831107518 2 7504 7504 15008 112620032
1344	2544390 1972 1527 19153 5.113039107518 65.645131484361 67 0 1 1 1
1345	2546362 1102 1527 19153 5.113039107518 65.645131484361 34 7503 7504 255135 1914525537
1346	2547464 1204 1527 19153 5.113039107518 65.645131484361 34 1278033 1278068 43453712 55536031961834
1347	2548668 1204 1533 19160 5.113947107518 65.646007484361 34 1278259 1278260 43460839 55554250781881
1348	2549872 1204 1533 19160 5.113947107518 65.646007484361 34 1278033 1278068 43453712 55536031961834
1349	2551076 1102 1533 19160 5.113947107518 65.646007484361 34 7503 7504 255135 1914525537
1350	2552178 1944 1533 19160 5.113947107518 65.646007484361 66 0 2 35 39
1351	2554122 1170 1540 19153 5.114831107518 65.645131484361 33 1278033 1278067 42175644 53902574149210
1352	2555292 1170 1540 19153 5.114831107518 65.645131484361 33 1278260 1278260 42182580 53920304710800
1353	2556462 28 1540 1540 5.114831107518 5.114831107518 1 0 0 0 0
1354	2556490 31 1540 1540 5.114831107518 5.114831107518 1 1072 1072 1072 1149184
1355	2556521 37 1540 1540 5.114831107518 5.114831107518 1 4294967295 4294967295 4294967295 1.844674406512e+019
1356	2556558 972 1540 19153 5.114831107518 65.645131484361 33 0 0 0 0
1357	2557530 1178 1550 19160 5.115707107518 65.646007484361 33 0.00176 0.002136 0.060352 0.000111066624
1358	2558708 1385 1550 19160 5.115707107518 65.646007484361 33 0.00022 0.001845544321 0.047433189777 7.4425170114027e-005
1359	2560093 1386 1550 19160 5.115707107518 65.646007484361 33 0.009334777537 0.65647 5.20004783345 1.8426202112073
1360	2561479 1061 1550 19160 5.115707107518 65.646007484361 33 1 2.6261 38.808556078634 51.004721381989
1361	2562540 1071 1550 19160 5.115707107518 65.646007484361 33 1072 2144 40736 52862464
1362	2563611 1269 1550 19160 5.115707107518 65.646007484361 33 4294967295 4294967295 141733920735 6.0874255414895e+020
1363	2564880 972 1550 19160 5.115707107518 65.646007484361 33 0 0 0 0
1364	2565852 1055 1567 19083 5.224903103733 65.30770094693 36 0 0 0 0
1365	2566907 1302 1567 19083 5.224903103733 65.30770094693 37 7504 1313957 47309956 62153444232580
1366	2568209 1163 1567 19083 5.224903103733 65.30770094693 36 7504 7504 270144 2027160576
1367	2569372 1265 1567 19083 5.224903103733 65.30770094693 36 0 1306453 45725855 59738680442315
1368	2570637 1305 1574 19093 5.225811103733 65.30896094693 37 1313730 1313767 48608672 63859540372352
1369	2571942 62 1574 1587 5.225811103733 5.227603103733 2 7504 7504 15008 112620032
1370	2572004 2082 1574 19093 5.225811103733 65.30896094693 71 0 1 1 1
1371	2574086 1163 1574 19093 5.225811103733 65.30896094693 36 7503 7504 270143 2027145569
1372	2575249 1271 1574 19093 5.225811103733 65.30896094693 36 1306226 1306263 47024799 61425881142945
1373	2576520 1271 1580 19100 5.226719103733 65.30983694693 36 1306452 1306453 47032307 61445497270619
1374	2577791 1271 1580 19100 5.226719103733 65.30983694693 36 1306226 1306263 47024799 61425881142945
1375	2579062 1163 1580 19100 5.226719103733 65.30983694693 36 7503 7504 270143 2027145569
1376	2580225 2054 1580 19100 5.226719103733 65.30983694693 70 0 2 37 41
1377	2582279 1237 1587 19093 5.227603103733 65.30896094693 35 1306226 1306262 45718536 59719558117776
1378	2583516 1237 1587 19093 5.227603103733 65.30896094693 35 1306453 1306453 45725855 59738680442315
1379	2584753 28 1587 1587 5.227603103733 5.227603103733 1 0 0 0 0
1380	2584781 31 1587 1587 5.227603103733 5.227603103733 1 1072 1072 1072 1149184
1381	2584812 37 1587 1587 5.227603103733 5.227603103733 1 4294967295 4294967295 4294967295 1.844674406512e+019
1382	2584849 1027 1587 19093 5.227603103733 65.30896094693 35 0 0 0 0
1383	2585876 1246 1597 19100 5.228479103733 65.30983694693 35 0.00176 0.002136 0.064248 0.00011872672
1384	2587122 1466 1597 19100 5.228479103733 65.30983694693 35 0.00022 0.001864793975 0.05126619234 8.1763453650759e-005
1385	2588588 1469 1597 19100 5.228479103733 65.30983694693 35 0.007190553699 0.65647 5.215620231414 1.8427446514333
1386	2590057 1116 1597 19100 5.228479103733 65.30983694693 35 1 2.6261 40.808556078634 53.004721381989
1387	2591173 1132 1597 19100 5.228479103733 65.30983694693 35 1072 2144 45024 62055936
1388	2592305 1342 1597 19100 5.228479103733 65.30983694693 35 4294967295 4294967295 150323855325 6.4563604227919e+020
1389	2593647 1027 1597 19100 5.228479103733 65.30983694693 35 0 0 0 0
1390	2594674 1414 1599 22176 5.291653187658 82.439313943902 48 0 0 0 0
1391	2596088 1733 1599 22176 5.291653187658 82.439313943902 49 7504 1330645 63878464 84989629879216
1392	2597821 1558 1599 22176 5.291653187658 82.439313943902 48 7504 7504 360192 2702880768
1393	2599379 1696 1599 22176 5.291653187658 82.439313943902 48 0 1323141 62187627 82282998976407
1394	2601075 1736 1606 22182 5.292561187658 82.440197943902 49 1330418 1330467 65191665 86733738489735
1395	2602811 62 1606 1619 5.292561187658 5.294353187658 2 7504 7504 15008 112620032
1396	2602873 2800 1606 22182 5.292561187658 82.440197943902 95 0 1 1 1
1397	2605673 1558 1606 22182 5.292561187658 82.440197943902 48 7503 7504 360191 2702865761
1398	2607231 1702 1606 22182 5.292561187658 82.440197943902 48 1322914 1322963 63501056 84008002366632
1399	2608933 1702 1612 22189 5.293469187658 82.441073943902 48 1323140 1323141 63510767 84033698436007
1400	2610635 1702 1612 22189 5.293469187658 82.441073943902 48 1322914 1322963 63501056 84008002366632
1401	2612337 1558 1612 22189 5.293469187658 82.441073943902 48 7503 7504 360191 2702865761
1402	2613895 2772 1612 22189 5.293469187658 82.441073943902 94 0 2 49 53
1403	2616667 1668 1619 22182 5.294353187658 82.440197943902 47 1322914 1322962 62178093 82257771267263
1404	2618335 1668 1619 22182 5.294353187658 82.440197943902 47 1323141 1323141 62187627 82282998976407
1405	2620003 28 1619 1619 5.294353187658 5.294353187658 1 0 0 0 0
1406	2620031 31 1619 1619 5.294353187658 5.294353187658 1 1072 1072 1072 1149184
1407	2620062 37 1619 1619 5.294353187658 5.294353187658 1 4294967295 4294967295 4294967295 1.844674406512e+019
1408	2620099 1386 1619 22182 5.294353187658 82.440197943902 47 0 0 0 0
1409	2621485 1677 1629 22189 5.295229187658 82.441073943902 47 0.00176 0.002136 0.085368 0.00015589792
1410	2623162 1977 1629 22189 5.295229187658 82.441073943902 47 0.00022 0.001861378623 0.072864352699 0.00012065573328536
1411	2625139 1976 1629 22189 5.295229187658 82.441073943902 47 0.001493692764 0.65647 5.256202449061 1.8429024386037
1412	2627115 1475 1629 22189 5.295229187658 82.441073943902 47 1 2.6261 52.808561078634 65.004731730227
1413	2628590 1527 1629 22189 5.295229187658 82.441073943902 47 1072 2680 62712 92796608
1414	2630117 1809 1629 22189 5.295229187658 82.441073943902 47 4294967295 4294967295 201863462865 8.6699697106062e+020
1415	2631926 1386 1629 22189 5.295229187658 82.441073943902 47 0 0 0 0
1416	2633312 1056 1631 19188 5.471248512222 65.970031950684 36 0 0 0 0
1417	2634368 1303 1631 19188 5.471248512222 65.970031950684 37 7504 1375544 49527088 68116422963712
1418	2635671 1164 1631 19188 5.471248512222 65.970031950684 36 7504 7504 270144 2027160576
1419	2636835 1266 1631 19188 5.471248512222 65.970031950684 36 0 1368040 47881400 65503670456000
1420	2638101 2309 1634 19914 5.471248512222 72.100788504535 76 40 44 3085 125273
1421	2640410 2309 1634 19914 5.471248512222 72.100788504535 76 40 44 3085 125273
1422	2642719 4466 1634 19914 5.471248512222 72.100788504535 152 0 1 76 76
1423	2647185 2309 1634 19914 5.471248512222 72.100788504535 76 40 44 3085 125273
1424	2649494 2275 1634 19914 5.471248512222 72.100788504535 76 0 0.000376 0.002256 8.48256e-007
1425	2651769 2309 1634 19914 5.471248512222 72.100788504535 76 47 51 3617 172187
1426	2654078 2309 1636 19916 5.472156512222 72.101664504535 76 47 51 3617 172187
1427	2656387 2309 1636 19916 5.472156512222 72.101664504535 76 40 44 3085 125273
1428	2658696 1306 1638 19198 5.472156512222 65.971291950684 37 1375317 1375354 50887391 69987204404333
1429	2660002 62 1638 1651 5.472156512222 5.473948512222 2 7504 7504 15008 112620032
1430	2660064 2084 1638 19198 5.472156512222 65.971291950684 71 0 1 1 1
1431	2662148 1164 1638 19198 5.472156512222 65.971291950684 36 7503 7504 270143 2027145569
1432	2663312 1272 1638 19198 5.472156512222 65.971291950684 36 1367813 1367850 49241931 67354660243455
1433	2664584 2309 1640 19907 5.472156512222 72.099904504535 76 40 44 3089 125597
1434	2666893 2309 1640 19907 5.472156512222 72.099904504535 76 40 44 3089 125597
1435	2669202 4466 1640 19907 5.472156512222 72.099904504535 152 0 1 76 76
1436	2673668 2309 1640 19907 5.472156512222 72.099904504535 76 40 44 3089 125597
1437	2675977 2289 1640 19907 5.472156512222 72.099904504535 76 0 0.000376 0.003008 1.131008e-006
1438	2678266 2309 1640 19907 5.472156512222 72.099904504535 76 47 51 3621 172567
1439	2680575 2309 1642 19909 5.473064512222 72.100788504535 76 47 51 3621 172567
1440	2682884 2309 1642 19909 5.473064512222 72.100788504535 76 40 44 3089 125597
1441	2685193 1272 1644 19205 5.473064512222 65.972167950684 36 1368039 1368040 49249439 67375201161521
1442	2686465 1272 1644 19205 5.473064512222 65.972167950684 36 1367813 1367850 49241931 67354660243455
1443	2687737 1164 1644 19205 5.473064512222 65.972167950684 36 7503 7504 270143 2027145569
1444	2688901 2056 1644 19205 5.473064512222 65.972167950684 70 0 2 37 41
1445	2690957 1238 1651 19198 5.473948512222 65.971291950684 35 1367813 1367849 47874081 65483646620955
1446	2692195 1238 1651 19198 5.473948512222 65.971291950684 35 1368040 1368040 47881400 65503670456000
1447	2693433 28 1651 1651 5.473948512222 5.473948512222 1 0 0 0 0
1448	2693461 31 1651 1651 5.473948512222 5.473948512222 1 1072 1072 1072 1149184
1449	2693492 37 1651 1651 5.473948512222 5.473948512222 1 4294967295 4294967295 4294967295 1.844674406512e+019
1450	2693529 1028 1651 19198 5.473948512222 65.971291950684 35 0 0 0 0
1451	2694557 1246 1661 19205 5.474824512222 65.972167950684 35 0.00176 0.002136 0.063872 0.000117261824
1452	2695803 1468 1661 19205 5.474824512222 65.972167950684 35 0.00022 0.001835797313 0.051037097243 8.0979816317054e-005
1453	2697271 1467 1661 19205 5.474824512222 65.972167950684 35 0.007164848282 0.65647 5.215402853512 1.8427280628951
1454	2698738 1117 1661 19205 5.474824512222 65.972167950684 35 1 2.6261 40.808481298609 53.004316370186
1455	2699855 1133 1661 19205 5.474824512222 65.972167950684 35 1072 1608 42344 53149760
1456	2700988 1343 1661 19205 5.474824512222 65.972167950684 35 4294967295 4294967295 150323855325 6.4563604227919e+020
1457	2702331 1028 1661 19205 5.474824512222 65.972167950684 35 0 0 0 0
1458	2703359 1177 1724 19905 5.564774648275 72.099904504535 40 0 0 0 0
1459	2704536 1448 1724 19905 5.564774648275 72.099904504535 41 7504 1398925 55964504 78279702535016
1460	2705984 1297 1724 19905 5.564774648275 72.099904504535 40 7504 7504 300160 2252400640
1461	2707281 1411 1724 19905 5.564774648275 72.099904504535 40 0 1391421 54265419 75506043570399
1462	2708692 1451 1731 19911 5.565682648275 72.100788504535 41 1398698 1398739 57347435 80212885398527
1463	2710143 62 1731 1744 5.565682648275 5.567474648275 2 7504 7504 15008 112620032
1464	2710205 2326 1731 19911 5.565682648275 72.100788504535 79 0 1 1 1
1465	2712531 1297 1731 19911 5.565682648275 72.100788504535 40 7503 7504 300159 2252385633
1466	2713828 1417 1731 19911 5.565682648275 72.100788504535 40 1391194 1391235 55648578 77419105841456
1467	2715245 1417 1737 19918 5.566590648275 72.101664504535 40 1391420 1391421 55656839 77442093186799
1468	2716662 1417 1737 19918 5.566590648275 72.101664504535 40 1391194 1391235 55648578 77419105841456
1469	2718079 1297 1737 19918 5.566590648275 72.101664504535 40 7503 7504 300159 2252385633
1470	2719376 2298 1737 19918 5.566590648275 72.101664504535 78 0 2 41 45
1471	2721674 1383 1744 19911 5.567474648275 72.100788504535 39 1391194 1391234 54257343 75483571016231
1472	2723057 1383 1744 19911 5.567474648275 72.100788504535 39 1391421 1391421 54265419 75506043570399
1473	2724440 28 1744 1744 5.567474648275 5.567474648275 1 0 0 0 0
1474	2724468 31 1744 1744 5.567474648275 5.567474648275 1 1072 1072 1072 1149184
1475	2724499 37 1744 1744 5.567474648275 5.567474648275 1 4294967295 4294967295 4294967295 1.844674406512e+019
1476	2724536 1149 1744 19911 5.567474648275 72.100788504535 39 0 0 0 0
1477	2725685 1392 1754 19918 5.568350648275 72.101664504535 39 0.00176 0.002144 0.071664 0.000132588032
1478	2727077 1638 1754 19918 5.568350648275 72.101664504535 39 0.00022 0.001879164944 0.059016430922 9.6216269178258e-005
1479	2728715 1640 1754 19918 5.568350648275 72.101664504535 39 0.004239388515 0.65647 5.236618441911 1.8429707449562
1480	2730355 1238 1754 19918 5.568350648275 72.101664504535 39 1 2.6261 44.809300259589 57.007330778222
1481	2731593 1266 1754 19918 5.568350648275 72.101664504535 39 1072 2144 47168 59757568
1482	2732859 1500 1754 19918 5.568350648275 72.101664504535 39 4294967295 4294967295 167503724505 7.1942301853967e+020
1483	2734359 1149 1754 19918 5.568350648275 72.101664504535 39 0 0 0 0

