file 164503 1642011990                                          
version 2
run BROADCAST30-0-20220112-19:25:51-12504
attr configname BROADCAST30
attr datetime 20220112-19:25:51
attr experiment BROADCAST30
attr inifile omnetpp.ini
attr iterationvars ""
attr iterationvarsf ""
attr measurement ""
attr network scenario
attr processid 12504
attr repetition 0
attr replication #0
attr resultdir results
attr runnumber 0
attr seedset 0
param *.n 30
param **.client[*].app[*].nPar 30
param **.client[0].app[0].broadcast 0.7
param **.ppp[*].ppp.queue.typename "\"DropTailQueue\""
param **.tcp.typename "\"Tcp\""
param **.tcp.nagleEnabled false
param **.client[*].app[*].fPar 0
param **.numApps 1
param **.client[*].app[*].typename "\"Node\""
param **.client[*].app[0].localPort index+1000
param **.client[*].app[0].localPortL 1234
param **.client[*].app[0].connectAddress "\"\""
param **.client[*].app[0].connectPort 1234

vector 0 scenario.client[0].ppp[0].ppp transmissionState:vector ETV
attr interpolationmode sample-hold
attr source transmissionStateChanged
attr title "tx state, vector"
vector 1 scenario.client[0].ppp[1].ppp transmissionState:vector ETV
attr interpolationmode sample-hold
attr source transmissionStateChanged
attr title "tx state, vector"
vector 2 scenario.client[0].ppp[2].ppp transmissionState:vector ETV
attr interpolationmode sample-hold
attr source transmissionStateChanged
attr title "tx state, vector"
vector 3 scenario.client[0].ppp[3].ppp transmissionState:vector ETV
attr interpolationmode sample-hold
attr source transmissionStateChanged
attr title "tx state, vector"
vector 4 scenario.client[0].ppp[4].ppp transmissionState:vector ETV
attr interpolationmode sample-hold
attr source transmissionStateChanged
attr title "tx state, vector"
vector 5 scenario.client[0].ppp[5].ppp transmissionState:vector ETV
attr interpolationmode sample-hold
attr source transmissionStateChanged
attr title "tx state, vector"
vector 6 scenario.client[0].ppp[6].ppp transmissionState:vector ETV
attr interpolationmode sample-hold
attr source transmissionStateChanged
attr title "tx state, vector"
vector 7 scenario.client[0].ppp[7].ppp transmissionState:vector ETV
attr interpolationmode sample-hold
attr source transmissionStateChanged
attr title "tx state, vector"
vector 8 scenario.client[0].ppp[8].ppp transmissionState:vector ETV
attr interpolationmode sample-hold
attr source transmissionStateChanged
attr title "tx state, vector"
vector 9 scenario.client[0].ppp[9].ppp transmissionState:vector ETV
attr interpolationmode sample-hold
attr source transmissionStateChanged
attr title "tx state, vector"
vector 10 scenario.client[0].ppp[10].ppp transmissionState:vector ETV
attr interpolationmode sample-hold
attr source transmissionStateChanged
attr title "tx state, vector"
vector 11 scenario.client[0].ppp[11].ppp transmissionState:vector ETV
attr interpolationmode sample-hold
attr source transmissionStateChanged
attr title "tx state, vector"
vector 12 scenario.client[0].ppp[12].ppp transmissionState:vector ETV
attr interpolationmode sample-hold
attr source transmissionStateChanged
attr title "tx state, vector"
vector 13 scenario.client[0].ppp[13].ppp transmissionState:vector ETV
attr interpolationmode sample-hold
attr source transmissionStateChanged
attr title "tx state, vector"
vector 14 scenario.client[0].ppp[14].ppp transmissionState:vector ETV
attr interpolationmode sample-hold
attr source transmissionStateChanged
attr title "tx state, vector"
vector 15 scenario.client[0].ppp[15].ppp transmissionState:vector ETV
attr interpolationmode sample-hold
attr source transmissionStateChanged
attr title "tx state, vector"
vector 16 scenario.client[0].ppp[16].ppp transmissionState:vector ETV
attr interpolationmode sample-hold
attr source transmissionStateChanged
attr title "tx state, vector"
vector 17 scenario.client[0].ppp[17].ppp transmissionState:vector ETV
attr interpolationmode sample-hold
attr source transmissionStateChanged
attr title "tx state, vector"
vector 18 scenario.client[0].ppp[18].ppp transmissionState:vector ETV
attr interpolationmode sample-hold
attr source transmissionStateChanged
attr title "tx state, vector"
vector 19 scenario.client[0].ppp[19].ppp transmissionState:vector ETV
attr interpolationmode sample-hold
attr source transmissionStateChanged
attr title "tx state, vector"
vector 20 scenario.client[0].ppp[20].ppp transmissionState:vector ETV
attr interpolationmode sample-hold
attr source transmissionStateChanged
attr title "tx state, vector"
vector 21 scenario.client[0].ppp[21].ppp transmissionState:vector ETV
attr interpolationmode sample-hold
attr source transmissionStateChanged
attr title "tx state, vector"
vector 22 scenario.client[0].ppp[22].ppp transmissionState:vector ETV
attr interpolationmode sample-hold
attr source transmissionStateChanged
attr title "tx state, vector"
vector 23 scenario.client[0].ppp[23].ppp transmissionState:vector ETV
attr interpolationmode sample-hold
attr source transmissionStateChanged
attr title "tx state, vector"
vector 24 scenario.client[0].ppp[24].ppp transmissionState:vector ETV
attr interpolationmode sample-hold
attr source transmissionStateChanged
attr title "tx state, vector"
vector 25 scenario.client[0].ppp[25].ppp transmissionState:vector ETV
attr interpolationmode sample-hold
attr source transmissionStateChanged
attr title "tx state, vector"
vector 26 scenario.client[0].ppp[26].ppp transmissionState:vector ETV
attr interpolationmode sample-hold
attr source transmissionStateChanged
attr title "tx state, vector"
vector 27 scenario.client[0].ppp[27].ppp transmissionState:vector ETV
attr interpolationmode sample-hold
attr source transmissionStateChanged
attr title "tx state, vector"
vector 28 scenario.client[0].ppp[28].ppp transmissionState:vector ETV
attr interpolationmode sample-hold
attr source transmissionStateChanged
attr title "tx state, vector"
vector 29 scenario.client[1].ppp[0].ppp transmissionState:vector ETV
attr interpolationmode sample-hold
attr source transmissionStateChanged
attr title "tx state, vector"
vector 30 scenario.client[1].ppp[1].ppp transmissionState:vector ETV
attr interpolationmode sample-hold
attr source transmissionStateChanged
attr title "tx state, vector"
vector 31 scenario.client[1].ppp[2].ppp transmissionState:vector ETV
attr interpolationmode sample-hold
attr source transmissionStateChanged
attr title "tx state, vector"
vector 32 scenario.client[1].ppp[3].ppp transmissionState:vector ETV
attr interpolationmode sample-hold
attr source transmissionStateChanged
attr title "tx state, vector"
vector 33 scenario.client[1].ppp[4].ppp transmissionState:vector ETV
attr interpolationmode sample-hold
attr source transmissionStateChanged
attr title "tx state, vector"
vector 34 scenario.client[1].ppp[5].ppp transmissionState:vector ETV
attr interpolationmode sample-hold
attr source transmissionStateChanged
attr title "tx state, vector"
vector 35 scenario.client[1].ppp[6].ppp transmissionState:vector ETV
attr interpolationmode sample-hold
attr source transmissionStateChanged
attr title "tx state, vector"
vector 36 scenario.client[1].ppp[7].ppp transmissionState:vector ETV
attr interpolationmode sample-hold
attr source transmissionStateChanged
attr title "tx state, vector"
vector 37 scenario.client[1].ppp[8].ppp transmissionState:vector ETV
attr interpolationmode sample-hold
attr source transmissionStateChanged
attr title "tx state, vector"
vector 38 scenario.client[1].ppp[9].ppp transmissionState:vector ETV
attr interpolationmode sample-hold
attr source transmissionStateChanged
attr title "tx state, vector"
vector 39 scenario.client[1].ppp[10].ppp transmissionState:vector ETV
attr interpolationmode sample-hold
attr source transmissionStateChanged
attr title "tx state, vector"
vector 40 scenario.client[1].ppp[11].ppp transmissionState:vector ETV
attr interpolationmode sample-hold
attr source transmissionStateChanged
attr title "tx state, vector"
vector 41 scenario.client[1].ppp[12].ppp transmissionState:vector ETV
attr interpolationmode sample-hold
attr source transmissionStateChanged
attr title "tx state, vector"
vector 42 scenario.client[1].ppp[13].ppp transmissionState:vector ETV
attr interpolationmode sample-hold
attr source transmissionStateChanged
attr title "tx state, vector"
vector 43 scenario.client[1].ppp[14].ppp transmissionState:vector ETV
attr interpolationmode sample-hold
attr source transmissionStateChanged
attr title "tx state, vector"
vector 44 scenario.client[1].ppp[15].ppp transmissionState:vector ETV
attr interpolationmode sample-hold
attr source transmissionStateChanged
attr title "tx state, vector"
vector 45 scenario.client[1].ppp[16].ppp transmissionState:vector ETV
attr interpolationmode sample-hold
attr source transmissionStateChanged
attr title "tx state, vector"
vector 46 scenario.client[1].ppp[17].ppp transmissionState:vector ETV
attr interpolationmode sample-hold
attr source transmissionStateChanged
attr title "tx state, vector"
vector 47 scenario.client[1].ppp[18].ppp transmissionState:vector ETV
attr interpolationmode sample-hold
attr source transmissionStateChanged
attr title "tx state, vector"
vector 48 scenario.client[1].ppp[19].ppp transmissionState:vector ETV
attr interpolationmode sample-hold
attr source transmissionStateChanged
attr title "tx state, vector"
vector 49 scenario.client[1].ppp[20].ppp transmissionState:vector ETV
attr interpolationmode sample-hold
attr source transmissionStateChanged
attr title "tx state, vector"
vector 50 scenario.client[1].ppp[21].ppp transmissionState:vector ETV
attr interpolationmode sample-hold
attr source transmissionStateChanged
attr title "tx state, vector"
vector 51 scenario.client[1].ppp[22].ppp transmissionState:vector ETV
attr interpolationmode sample-hold
attr source transmissionStateChanged
attr title "tx state, vector"
vector 52 scenario.client[1].ppp[23].ppp transmissionState:vector ETV
attr interpolationmode sample-hold
attr source transmissionStateChanged
attr title "tx state, vector"
vector 53 scenario.client[1].ppp[24].ppp transmissionState:vector ETV
attr interpolationmode sample-hold
attr source transmissionStateChanged
attr title "tx state, vector"
vector 54 scenario.client[1].ppp[25].ppp transmissionState:vector ETV
attr interpolationmode sample-hold
attr source transmissionStateChanged
attr title "tx state, vector"
vector 55 scenario.client[1].ppp[26].ppp transmissionState:vector ETV
attr interpolationmode sample-hold
attr source transmissionStateChanged
attr title "tx state, vector"
vector 56 scenario.client[1].ppp[27].ppp transmissionState:vector ETV
attr interpolationmode sample-hold
attr source transmissionStateChanged
attr title "tx state, vector"
vector 57 scenario.client[1].ppp[28].ppp transmissionState:vector ETV
attr interpolationmode sample-hold
attr source transmissionStateChanged
attr title "tx state, vector"
vector 58 scenario.client[2].ppp[0].ppp transmissionState:vector ETV
attr interpolationmode sample-hold
attr source transmissionStateChanged
attr title "tx state, vector"
vector 59 scenario.client[2].ppp[1].ppp transmissionState:vector ETV
attr interpolationmode sample-hold
attr source transmissionStateChanged
attr title "tx state, vector"
vector 60 scenario.client[2].ppp[2].ppp transmissionState:vector ETV
attr interpolationmode sample-hold
attr source transmissionStateChanged
attr title "tx state, vector"
vector 61 scenario.client[2].ppp[3].ppp transmissionState:vector ETV
attr interpolationmode sample-hold
attr source transmissionStateChanged
attr title "tx state, vector"
vector 62 scenario.client[2].ppp[4].ppp transmissionState:vector ETV
attr interpolationmode sample-hold
attr source transmissionStateChanged
attr title "tx state, vector"
vector 63 scenario.client[2].ppp[5].ppp transmissionState:vector ETV
attr interpolationmode sample-hold
attr source transmissionStateChanged
attr title "tx state, vector"
vector 64 scenario.client[2].ppp[6].ppp transmissionState:vector ETV
attr interpolationmode sample-hold
attr source transmissionStateChanged
attr title "tx state, vector"
vector 65 scenario.client[2].ppp[7].ppp transmissionState:vector ETV
attr interpolationmode sample-hold
attr source transmissionStateChanged
attr title "tx state, vector"
vector 66 scenario.client[2].ppp[8].ppp transmissionState:vector ETV
attr interpolationmode sample-hold
attr source transmissionStateChanged
attr title "tx state, vector"
vector 67 scenario.client[2].ppp[9].ppp transmissionState:vector ETV
attr interpolationmode sample-hold
attr source transmissionStateChanged
attr title "tx state, vector"
vector 68 scenario.client[2].ppp[10].ppp transmissionState:vector ETV
attr interpolationmode sample-hold
attr source transmissionStateChanged
attr title "tx state, vector"
vector 69 scenario.client[2].ppp[11].ppp transmissionState:vector ETV
attr interpolationmode sample-hold
attr source transmissionStateChanged
attr title "tx state, vector"
vector 70 scenario.client[2].ppp[12].ppp transmissionState:vector ETV
attr interpolationmode sample-hold
attr source transmissionStateChanged
attr title "tx state, vector"
vector 71 scenario.client[2].ppp[13].ppp transmissionState:vector ETV
attr interpolationmode sample-hold
attr source transmissionStateChanged
attr title "tx state, vector"
vector 72 scenario.client[2].ppp[14].ppp transmissionState:vector ETV
attr interpolationmode sample-hold
attr source transmissionStateChanged
attr title "tx state, vector"
vector 73 scenario.client[2].ppp[15].ppp transmissionState:vector ETV
attr interpolationmode sample-hold
attr source transmissionStateChanged
attr title "tx state, vector"
vector 74 scenario.client[2].ppp[16].ppp transmissionState:vector ETV
attr interpolationmode sample-hold
attr source transmissionStateChanged
attr title "tx state, vector"
vector 75 scenario.client[2].ppp[17].ppp transmissionState:vector ETV
attr interpolationmode sample-hold
attr source transmissionStateChanged
attr title "tx state, vector"
vector 76 scenario.client[2].ppp[18].ppp transmissionState:vector ETV
attr interpolationmode sample-hold
attr source transmissionStateChanged
attr title "tx state, vector"
vector 77 scenario.client[2].ppp[19].ppp transmissionState:vector ETV
attr interpolationmode sample-hold
attr source transmissionStateChanged
attr title "tx state, vector"
vector 78 scenario.client[2].ppp[20].ppp transmissionState:vector ETV
attr interpolationmode sample-hold
attr source transmissionStateChanged
attr title "tx state, vector"
vector 79 scenario.client[2].ppp[21].ppp transmissionState:vector ETV
attr interpolationmode sample-hold
attr source transmissionStateChanged
attr title "tx state, vector"
vector 80 scenario.client[2].ppp[22].ppp transmissionState:vector ETV
attr interpolationmode sample-hold
attr source transmissionStateChanged
attr title "tx state, vector"
vector 81 scenario.client[2].ppp[23].ppp transmissionState:vector ETV
attr interpolationmode sample-hold
attr source transmissionStateChanged
attr title "tx state, vector"
vector 82 scenario.client[2].ppp[24].ppp transmissionState:vector ETV
attr interpolationmode sample-hold
attr source transmissionStateChanged
attr title "tx state, vector"
vector 83 scenario.client[2].ppp[25].ppp transmissionState:vector ETV
attr interpolationmode sample-hold
attr source transmissionStateChanged
attr title "tx state, vector"
vector 84 scenario.client[2].ppp[26].ppp transmissionState:vector ETV
attr interpolationmode sample-hold
attr source transmissionStateChanged
attr title "tx state, vector"
vector 85 scenario.client[2].ppp[27].ppp transmissionState:vector ETV
attr interpolationmode sample-hold
attr source transmissionStateChanged
attr title "tx state, vector"
vector 86 scenario.client[2].ppp[28].ppp transmissionState:vector ETV
attr interpolationmode sample-hold
attr source transmissionStateChanged
attr title "tx state, vector"
vector 87 scenario.client[3].ppp[0].ppp transmissionState:vector ETV
attr interpolationmode sample-hold
attr source transmissionStateChanged
attr title "tx state, vector"
vector 88 scenario.client[3].ppp[1].ppp transmissionState:vector ETV
attr interpolationmode sample-hold
attr source transmissionStateChanged
attr title "tx state, vector"
vector 89 scenario.client[3].ppp[2].ppp transmissionState:vector ETV
attr interpolationmode sample-hold
attr source transmissionStateChanged
attr title "tx state, vector"
vector 90 scenario.client[3].ppp[3].ppp transmissionState:vector ETV
attr interpolationmode sample-hold
attr source transmissionStateChanged
attr title "tx state, vector"
vector 91 scenario.client[3].ppp[4].ppp transmissionState:vector ETV
attr interpolationmode sample-hold
attr source transmissionStateChanged
attr title "tx state, vector"
vector 92 scenario.client[3].ppp[5].ppp transmissionState:vector ETV
attr interpolationmode sample-hold
attr source transmissionStateChanged
attr title "tx state, vector"
vector 93 scenario.client[3].ppp[6].ppp transmissionState:vector ETV
attr interpolationmode sample-hold
attr source transmissionStateChanged
attr title "tx state, vector"
vector 94 scenario.client[3].ppp[7].ppp transmissionState:vector ETV
attr interpolationmode sample-hold
attr source transmissionStateChanged
attr title "tx state, vector"
vector 95 scenario.client[3].ppp[8].ppp transmissionState:vector ETV
attr interpolationmode sample-hold
attr source transmissionStateChanged
attr title "tx state, vector"
vector 96 scenario.client[3].ppp[9].ppp transmissionState:vector ETV
attr interpolationmode sample-hold
attr source transmissionStateChanged
attr title "tx state, vector"
vector 97 scenario.client[3].ppp[10].ppp transmissionState:vector ETV
attr interpolationmode sample-hold
attr source transmissionStateChanged
attr title "tx state, vector"
vector 98 scenario.client[3].ppp[11].ppp transmissionState:vector ETV
attr interpolationmode sample-hold
attr source transmissionStateChanged
attr title "tx state, vector"
vector 99 scenario.client[3].ppp[12].ppp transmissionState:vector ETV
attr interpolationmode sample-hold
attr source transmissionStateChanged
attr title "tx state, vector"
vector 100 scenario.client[3].ppp[13].ppp transmissionState:vector ETV
attr interpolationmode sample-hold
attr source transmissionStateChanged
attr title "tx state, vector"
vector 101 scenario.client[3].ppp[14].ppp transmissionState:vector ETV
attr interpolationmode sample-hold
attr source transmissionStateChanged
attr title "tx state, vector"
vector 102 scenario.client[3].ppp[15].ppp transmissionState:vector ETV
attr interpolationmode sample-hold
attr source transmissionStateChanged
attr title "tx state, vector"
vector 103 scenario.client[3].ppp[16].ppp transmissionState:vector ETV
attr interpolationmode sample-hold
attr source transmissionStateChanged
attr title "tx state, vector"
vector 104 scenario.client[3].ppp[17].ppp transmissionState:vector ETV
attr interpolationmode sample-hold
attr source transmissionStateChanged
attr title "tx state, vector"
vector 105 scenario.client[3].ppp[18].ppp transmissionState:vector ETV
attr interpolationmode sample-hold
attr source transmissionStateChanged
attr title "tx state, vector"
vector 106 scenario.client[3].ppp[19].ppp transmissionState:vector ETV
attr interpolationmode sample-hold
attr source transmissionStateChanged
attr title "tx state, vector"
vector 107 scenario.client[3].ppp[20].ppp transmissionState:vector ETV
attr interpolationmode sample-hold
attr source transmissionStateChanged
attr title "tx state, vector"
vector 108 scenario.client[3].ppp[21].ppp transmissionState:vector ETV
attr interpolationmode sample-hold
attr source transmissionStateChanged
attr title "tx state, vector"
vector 109 scenario.client[3].ppp[22].ppp transmissionState:vector ETV
attr interpolationmode sample-hold
attr source transmissionStateChanged
attr title "tx state, vector"
vector 110 scenario.client[3].ppp[23].ppp transmissionState:vector ETV
attr interpolationmode sample-hold
attr source transmissionStateChanged
attr title "tx state, vector"
vector 111 scenario.client[3].ppp[24].ppp transmissionState:vector ETV
attr interpolationmode sample-hold
attr source transmissionStateChanged
attr title "tx state, vector"
vector 112 scenario.client[3].ppp[25].ppp transmissionState:vector ETV
attr interpolationmode sample-hold
attr source transmissionStateChanged
attr title "tx state, vector"
vector 113 scenario.client[3].ppp[26].ppp transmissionState:vector ETV
attr interpolationmode sample-hold
attr source transmissionStateChanged
attr title "tx state, vector"
vector 114 scenario.client[3].ppp[27].ppp transmissionState:vector ETV
attr interpolationmode sample-hold
attr source transmissionStateChanged
attr title "tx state, vector"
vector 115 scenario.client[3].ppp[28].ppp transmissionState:vector ETV
attr interpolationmode sample-hold
attr source transmissionStateChanged
attr title "tx state, vector"
vector 116 scenario.client[4].ppp[0].ppp transmissionState:vector ETV
attr interpolationmode sample-hold
attr source transmissionStateChanged
attr title "tx state, vector"
vector 117 scenario.client[4].ppp[1].ppp transmissionState:vector ETV
attr interpolationmode sample-hold
attr source transmissionStateChanged
attr title "tx state, vector"
vector 118 scenario.client[4].ppp[2].ppp transmissionState:vector ETV
attr interpolationmode sample-hold
attr source transmissionStateChanged
attr title "tx state, vector"
vector 119 scenario.client[4].ppp[3].ppp transmissionState:vector ETV
attr interpolationmode sample-hold
attr source transmissionStateChanged
attr title "tx state, vector"
vector 120 scenario.client[4].ppp[4].ppp transmissionState:vector ETV
attr interpolationmode sample-hold
attr source transmissionStateChanged
attr title "tx state, vector"
vector 121 scenario.client[4].ppp[5].ppp transmissionState:vector ETV
attr interpolationmode sample-hold
attr source transmissionStateChanged
attr title "tx state, vector"
vector 122 scenario.client[4].ppp[6].ppp transmissionState:vector ETV
attr interpolationmode sample-hold
attr source transmissionStateChanged
attr title "tx state, vector"
vector 123 scenario.client[4].ppp[7].ppp transmissionState:vector ETV
attr interpolationmode sample-hold
attr source transmissionStateChanged
attr title "tx state, vector"
vector 124 scenario.client[4].ppp[8].ppp transmissionState:vector ETV
attr interpolationmode sample-hold
attr source transmissionStateChanged
attr title "tx state, vector"
vector 125 scenario.client[4].ppp[9].ppp transmissionState:vector ETV
attr interpolationmode sample-hold
attr source transmissionStateChanged
attr title "tx state, vector"
vector 126 scenario.client[4].ppp[10].ppp transmissionState:vector ETV
attr interpolationmode sample-hold
attr source transmissionStateChanged
attr title "tx state, vector"
vector 127 scenario.client[4].ppp[11].ppp transmissionState:vector ETV
attr interpolationmode sample-hold
attr source transmissionStateChanged
attr title "tx state, vector"
vector 128 scenario.client[4].ppp[12].ppp transmissionState:vector ETV
attr interpolationmode sample-hold
attr source transmissionStateChanged
attr title "tx state, vector"
vector 129 scenario.client[4].ppp[13].ppp transmissionState:vector ETV
attr interpolationmode sample-hold
attr source transmissionStateChanged
attr title "tx state, vector"
vector 130 scenario.client[4].ppp[14].ppp transmissionState:vector ETV
attr interpolationmode sample-hold
attr source transmissionStateChanged
attr title "tx state, vector"
vector 131 scenario.client[4].ppp[15].ppp transmissionState:vector ETV
attr interpolationmode sample-hold
attr source transmissionStateChanged
attr title "tx state, vector"
vector 132 scenario.client[4].ppp[16].ppp transmissionState:vector ETV
attr interpolationmode sample-hold
attr source transmissionStateChanged
attr title "tx state, vector"
vector 133 scenario.client[4].ppp[17].ppp transmissionState:vector ETV
attr interpolationmode sample-hold
attr source transmissionStateChanged
attr title "tx state, vector"
vector 134 scenario.client[4].ppp[18].ppp transmissionState:vector ETV
attr interpolationmode sample-hold
attr source transmissionStateChanged
attr title "tx state, vector"
vector 135 scenario.client[4].ppp[19].ppp transmissionState:vector ETV
attr interpolationmode sample-hold
attr source transmissionStateChanged
attr title "tx state, vector"
vector 136 scenario.client[4].ppp[20].ppp transmissionState:vector ETV
attr interpolationmode sample-hold
attr source transmissionStateChanged
attr title "tx state, vector"
vector 137 scenario.client[4].ppp[21].ppp transmissionState:vector ETV
attr interpolationmode sample-hold
attr source transmissionStateChanged
attr title "tx state, vector"
vector 138 scenario.client[4].ppp[22].ppp transmissionState:vector ETV
attr interpolationmode sample-hold
attr source transmissionStateChanged
attr title "tx state, vector"
vector 139 scenario.client[4].ppp[23].ppp transmissionState:vector ETV
attr interpolationmode sample-hold
attr source transmissionStateChanged
attr title "tx state, vector"
vector 140 scenario.client[4].ppp[24].ppp transmissionState:vector ETV
attr interpolationmode sample-hold
attr source transmissionStateChanged
attr title "tx state, vector"
vector 141 scenario.client[4].ppp[25].ppp transmissionState:vector ETV
attr interpolationmode sample-hold
attr source transmissionStateChanged
attr title "tx state, vector"
vector 142 scenario.client[4].ppp[26].ppp transmissionState:vector ETV
attr interpolationmode sample-hold
attr source transmissionStateChanged
attr title "tx state, vector"
vector 143 scenario.client[4].ppp[27].ppp transmissionState:vector ETV
attr interpolationmode sample-hold
attr source transmissionStateChanged
attr title "tx state, vector"
vector 144 scenario.client[4].ppp[28].ppp transmissionState:vector ETV
attr interpolationmode sample-hold
attr source transmissionStateChanged
attr title "tx state, vector"
vector 145 scenario.client[5].ppp[0].ppp transmissionState:vector ETV
attr interpolationmode sample-hold
attr source transmissionStateChanged
attr title "tx state, vector"
vector 146 scenario.client[5].ppp[1].ppp transmissionState:vector ETV
attr interpolationmode sample-hold
attr source transmissionStateChanged
attr title "tx state, vector"
vector 147 scenario.client[5].ppp[2].ppp transmissionState:vector ETV
attr interpolationmode sample-hold
attr source transmissionStateChanged
attr title "tx state, vector"
vector 148 scenario.client[5].ppp[3].ppp transmissionState:vector ETV
attr interpolationmode sample-hold
attr source transmissionStateChanged
attr title "tx state, vector"
vector 149 scenario.client[5].ppp[4].ppp transmissionState:vector ETV
attr interpolationmode sample-hold
attr source transmissionStateChanged
attr title "tx state, vector"
vector 150 scenario.client[5].ppp[5].ppp transmissionState:vector ETV
attr interpolationmode sample-hold
attr source transmissionStateChanged
attr title "tx state, vector"
vector 151 scenario.client[5].ppp[6].ppp transmissionState:vector ETV
attr interpolationmode sample-hold
attr source transmissionStateChanged
attr title "tx state, vector"
vector 152 scenario.client[5].ppp[7].ppp transmissionState:vector ETV
attr interpolationmode sample-hold
attr source transmissionStateChanged
attr title "tx state, vector"
vector 153 scenario.client[5].ppp[8].ppp transmissionState:vector ETV
attr interpolationmode sample-hold
attr source transmissionStateChanged
attr title "tx state, vector"
vector 154 scenario.client[5].ppp[9].ppp transmissionState:vector ETV
attr interpolationmode sample-hold
attr source transmissionStateChanged
attr title "tx state, vector"
vector 155 scenario.client[5].ppp[10].ppp transmissionState:vector ETV
attr interpolationmode sample-hold
attr source transmissionStateChanged
attr title "tx state, vector"
vector 156 scenario.client[5].ppp[11].ppp transmissionState:vector ETV
attr interpolationmode sample-hold
attr source transmissionStateChanged
attr title "tx state, vector"
vector 157 scenario.client[5].ppp[12].ppp transmissionState:vector ETV
attr interpolationmode sample-hold
attr source transmissionStateChanged
attr title "tx state, vector"
vector 158 scenario.client[5].ppp[13].ppp transmissionState:vector ETV
attr interpolationmode sample-hold
attr source transmissionStateChanged
attr title "tx state, vector"
vector 159 scenario.client[5].ppp[14].ppp transmissionState:vector ETV
attr interpolationmode sample-hold
attr source transmissionStateChanged
attr title "tx state, vector"
vector 160 scenario.client[5].ppp[15].ppp transmissionState:vector ETV
attr interpolationmode sample-hold
attr source transmissionStateChanged
attr title "tx state, vector"
vector 161 scenario.client[5].ppp[16].ppp transmissionState:vector ETV
attr interpolationmode sample-hold
attr source transmissionStateChanged
attr title "tx state, vector"
vector 162 scenario.client[5].ppp[17].ppp transmissionState:vector ETV
attr interpolationmode sample-hold
attr source transmissionStateChanged
attr title "tx state, vector"
vector 163 scenario.client[5].ppp[18].ppp transmissionState:vector ETV
attr interpolationmode sample-hold
attr source transmissionStateChanged
attr title "tx state, vector"
vector 164 scenario.client[5].ppp[19].ppp transmissionState:vector ETV
attr interpolationmode sample-hold
attr source transmissionStateChanged
attr title "tx state, vector"
vector 165 scenario.client[5].ppp[20].ppp transmissionState:vector ETV
attr interpolationmode sample-hold
attr source transmissionStateChanged
attr title "tx state, vector"
vector 166 scenario.client[5].ppp[21].ppp transmissionState:vector ETV
attr interpolationmode sample-hold
attr source transmissionStateChanged
attr title "tx state, vector"
vector 167 scenario.client[5].ppp[22].ppp transmissionState:vector ETV
attr interpolationmode sample-hold
attr source transmissionStateChanged
attr title "tx state, vector"
vector 168 scenario.client[5].ppp[23].ppp transmissionState:vector ETV
attr interpolationmode sample-hold
attr source transmissionStateChanged
attr title "tx state, vector"
vector 169 scenario.client[5].ppp[24].ppp transmissionState:vector ETV
attr interpolationmode sample-hold
attr source transmissionStateChanged
attr title "tx state, vector"
vector 170 scenario.client[5].ppp[25].ppp transmissionState:vector ETV
attr interpolationmode sample-hold
attr source transmissionStateChanged
attr title "tx state, vector"
vector 171 scenario.client[5].ppp[26].ppp transmissionState:vector ETV
attr interpolationmode sample-hold
attr source transmissionStateChanged
attr title "tx state, vector"
vector 172 scenario.client[5].ppp[27].ppp transmissionState:vector ETV
attr interpolationmode sample-hold
attr source transmissionStateChanged
attr title "tx state, vector"
vector 173 scenario.client[5].ppp[28].ppp transmissionState:vector ETV
attr interpolationmode sample-hold
attr source transmissionStateChanged
attr title "tx state, vector"
vector 174 scenario.client[6].ppp[0].ppp transmissionState:vector ETV
attr interpolationmode sample-hold
attr source transmissionStateChanged
attr title "tx state, vector"
vector 175 scenario.client[6].ppp[1].ppp transmissionState:vector ETV
attr interpolationmode sample-hold
attr source transmissionStateChanged
attr title "tx state, vector"
vector 176 scenario.client[6].ppp[2].ppp transmissionState:vector ETV
attr interpolationmode sample-hold
attr source transmissionStateChanged
attr title "tx state, vector"
vector 177 scenario.client[6].ppp[3].ppp transmissionState:vector ETV
attr interpolationmode sample-hold
attr source transmissionStateChanged
attr title "tx state, vector"
vector 178 scenario.client[6].ppp[4].ppp transmissionState:vector ETV
attr interpolationmode sample-hold
attr source transmissionStateChanged
attr title "tx state, vector"
vector 179 scenario.client[6].ppp[5].ppp transmissionState:vector ETV
attr interpolationmode sample-hold
attr source transmissionStateChanged
attr title "tx state, vector"
vector 180 scenario.client[6].ppp[6].ppp transmissionState:vector ETV
attr interpolationmode sample-hold
attr source transmissionStateChanged
attr title "tx state, vector"
vector 181 scenario.client[6].ppp[7].ppp transmissionState:vector ETV
attr interpolationmode sample-hold
attr source transmissionStateChanged
attr title "tx state, vector"
vector 182 scenario.client[6].ppp[8].ppp transmissionState:vector ETV
attr interpolationmode sample-hold
attr source transmissionStateChanged
attr title "tx state, vector"
vector 183 scenario.client[6].ppp[9].ppp transmissionState:vector ETV
attr interpolationmode sample-hold
attr source transmissionStateChanged
attr title "tx state, vector"
vector 184 scenario.client[6].ppp[10].ppp transmissionState:vector ETV
attr interpolationmode sample-hold
attr source transmissionStateChanged
attr title "tx state, vector"
vector 185 scenario.client[6].ppp[11].ppp transmissionState:vector ETV
attr interpolationmode sample-hold
attr source transmissionStateChanged
attr title "tx state, vector"
vector 186 scenario.client[6].ppp[12].ppp transmissionState:vector ETV
attr interpolationmode sample-hold
attr source transmissionStateChanged
attr title "tx state, vector"
vector 187 scenario.client[6].ppp[13].ppp transmissionState:vector ETV
attr interpolationmode sample-hold
attr source transmissionStateChanged
attr title "tx state, vector"
vector 188 scenario.client[6].ppp[14].ppp transmissionState:vector ETV
attr interpolationmode sample-hold
attr source transmissionStateChanged
attr title "tx state, vector"
vector 189 scenario.client[6].ppp[15].ppp transmissionState:vector ETV
attr interpolationmode sample-hold
attr source transmissionStateChanged
attr title "tx state, vector"
vector 190 scenario.client[6].ppp[16].ppp transmissionState:vector ETV
attr interpolationmode sample-hold
attr source transmissionStateChanged
attr title "tx state, vector"
vector 191 scenario.client[6].ppp[17].ppp transmissionState:vector ETV
attr interpolationmode sample-hold
attr source transmissionStateChanged
attr title "tx state, vector"
vector 192 scenario.client[6].ppp[18].ppp transmissionState:vector ETV
attr interpolationmode sample-hold
attr source transmissionStateChanged
attr title "tx state, vector"
vector 193 scenario.client[6].ppp[19].ppp transmissionState:vector ETV
attr interpolationmode sample-hold
attr source transmissionStateChanged
attr title "tx state, vector"
vector 194 scenario.client[6].ppp[20].ppp transmissionState:vector ETV
attr interpolationmode sample-hold
attr source transmissionStateChanged
attr title "tx state, vector"
vector 195 scenario.client[6].ppp[21].ppp transmissionState:vector ETV
attr interpolationmode sample-hold
attr source transmissionStateChanged
attr title "tx state, vector"
vector 196 scenario.client[6].ppp[22].ppp transmissionState:vector ETV
attr interpolationmode sample-hold
attr source transmissionStateChanged
attr title "tx state, vector"
vector 197 scenario.client[6].ppp[23].ppp transmissionState:vector ETV
attr interpolationmode sample-hold
attr source transmissionStateChanged
attr title "tx state, vector"
vector 198 scenario.client[6].ppp[24].ppp transmissionState:vector ETV
attr interpolationmode sample-hold
attr source transmissionStateChanged
attr title "tx state, vector"
vector 199 scenario.client[6].ppp[25].ppp transmissionState:vector ETV
attr interpolationmode sample-hold
attr source transmissionStateChanged
attr title "tx state, vector"
vector 200 scenario.client[6].ppp[26].ppp transmissionState:vector ETV
attr interpolationmode sample-hold
attr source transmissionStateChanged
attr title "tx state, vector"
vector 201 scenario.client[6].ppp[27].ppp transmissionState:vector ETV
attr interpolationmode sample-hold
attr source transmissionStateChanged
attr title "tx state, vector"
vector 202 scenario.client[6].ppp[28].ppp transmissionState:vector ETV
attr interpolationmode sample-hold
attr source transmissionStateChanged
attr title "tx state, vector"
vector 203 scenario.client[7].ppp[0].ppp transmissionState:vector ETV
attr interpolationmode sample-hold
attr source transmissionStateChanged
attr title "tx state, vector"
vector 204 scenario.client[7].ppp[1].ppp transmissionState:vector ETV
attr interpolationmode sample-hold
attr source transmissionStateChanged
attr title "tx state, vector"
vector 205 scenario.client[7].ppp[2].ppp transmissionState:vector ETV
attr interpolationmode sample-hold
attr source transmissionStateChanged
attr title "tx state, vector"
vector 206 scenario.client[7].ppp[3].ppp transmissionState:vector ETV
attr interpolationmode sample-hold
attr source transmissionStateChanged
attr title "tx state, vector"
vector 207 scenario.client[7].ppp[4].ppp transmissionState:vector ETV
attr interpolationmode sample-hold
attr source transmissionStateChanged
attr title "tx state, vector"
vector 208 scenario.client[7].ppp[5].ppp transmissionState:vector ETV
attr interpolationmode sample-hold
attr source transmissionStateChanged
attr title "tx state, vector"
vector 209 scenario.client[7].ppp[6].ppp transmissionState:vector ETV
attr interpolationmode sample-hold
attr source transmissionStateChanged
attr title "tx state, vector"
vector 210 scenario.client[7].ppp[7].ppp transmissionState:vector ETV
attr interpolationmode sample-hold
attr source transmissionStateChanged
attr title "tx state, vector"
vector 211 scenario.client[7].ppp[8].ppp transmissionState:vector ETV
attr interpolationmode sample-hold
attr source transmissionStateChanged
attr title "tx state, vector"
vector 212 scenario.client[7].ppp[9].ppp transmissionState:vector ETV
attr interpolationmode sample-hold
attr source transmissionStateChanged
attr title "tx state, vector"
vector 213 scenario.client[7].ppp[10].ppp transmissionState:vector ETV
attr interpolationmode sample-hold
attr source transmissionStateChanged
attr title "tx state, vector"
vector 214 scenario.client[7].ppp[11].ppp transmissionState:vector ETV
attr interpolationmode sample-hold
attr source transmissionStateChanged
attr title "tx state, vector"
vector 215 scenario.client[7].ppp[12].ppp transmissionState:vector ETV
attr interpolationmode sample-hold
attr source transmissionStateChanged
attr title "tx state, vector"
vector 216 scenario.client[7].ppp[13].ppp transmissionState:vector ETV
attr interpolationmode sample-hold
attr source transmissionStateChanged
attr title "tx state, vector"
vector 217 scenario.client[7].ppp[14].ppp transmissionState:vector ETV
attr interpolationmode sample-hold
attr source transmissionStateChanged
attr title "tx state, vector"
vector 218 scenario.client[7].ppp[15].ppp transmissionState:vector ETV
attr interpolationmode sample-hold
attr source transmissionStateChanged
attr title "tx state, vector"
vector 219 scenario.client[7].ppp[16].ppp transmissionState:vector ETV
attr interpolationmode sample-hold
attr source transmissionStateChanged
attr title "tx state, vector"
vector 220 scenario.client[7].ppp[17].ppp transmissionState:vector ETV
attr interpolationmode sample-hold
attr source transmissionStateChanged
attr title "tx state, vector"
vector 221 scenario.client[7].ppp[18].ppp transmissionState:vector ETV
attr interpolationmode sample-hold
attr source transmissionStateChanged
attr title "tx state, vector"
vector 222 scenario.client[7].ppp[19].ppp transmissionState:vector ETV
attr interpolationmode sample-hold
attr source transmissionStateChanged
attr title "tx state, vector"
vector 223 scenario.client[7].ppp[20].ppp transmissionState:vector ETV
attr interpolationmode sample-hold
attr source transmissionStateChanged
attr title "tx state, vector"
vector 224 scenario.client[7].ppp[21].ppp transmissionState:vector ETV
attr interpolationmode sample-hold
attr source transmissionStateChanged
attr title "tx state, vector"
vector 225 scenario.client[7].ppp[22].ppp transmissionState:vector ETV
attr interpolationmode sample-hold
attr source transmissionStateChanged
attr title "tx state, vector"
vector 226 scenario.client[7].ppp[23].ppp transmissionState:vector ETV
attr interpolationmode sample-hold
attr source transmissionStateChanged
attr title "tx state, vector"
vector 227 scenario.client[7].ppp[24].ppp transmissionState:vector ETV
attr interpolationmode sample-hold
attr source transmissionStateChanged
attr title "tx state, vector"
vector 228 scenario.client[7].ppp[25].ppp transmissionState:vector ETV
attr interpolationmode sample-hold
attr source transmissionStateChanged
attr title "tx state, vector"
vector 229 scenario.client[7].ppp[26].ppp transmissionState:vector ETV
attr interpolationmode sample-hold
attr source transmissionStateChanged
attr title "tx state, vector"
vector 230 scenario.client[7].ppp[27].ppp transmissionState:vector ETV
attr interpolationmode sample-hold
attr source transmissionStateChanged
attr title "tx state, vector"
vector 231 scenario.client[7].ppp[28].ppp transmissionState:vector ETV
attr interpolationmode sample-hold
attr source transmissionStateChanged
attr title "tx state, vector"
vector 232 scenario.client[8].ppp[0].ppp transmissionState:vector ETV
attr interpolationmode sample-hold
attr source transmissionStateChanged
attr title "tx state, vector"
vector 233 scenario.client[8].ppp[1].ppp transmissionState:vector ETV
attr interpolationmode sample-hold
attr source transmissionStateChanged
attr title "tx state, vector"
vector 234 scenario.client[8].ppp[2].ppp transmissionState:vector ETV
attr interpolationmode sample-hold
attr source transmissionStateChanged
attr title "tx state, vector"
vector 235 scenario.client[8].ppp[3].ppp transmissionState:vector ETV
attr interpolationmode sample-hold
attr source transmissionStateChanged
attr title "tx state, vector"
vector 236 scenario.client[8].ppp[4].ppp transmissionState:vector ETV
attr interpolationmode sample-hold
attr source transmissionStateChanged
attr title "tx state, vector"
vector 237 scenario.client[8].ppp[5].ppp transmissionState:vector ETV
attr interpolationmode sample-hold
attr source transmissionStateChanged
attr title "tx state, vector"
vector 238 scenario.client[8].ppp[6].ppp transmissionState:vector ETV
attr interpolationmode sample-hold
attr source transmissionStateChanged
attr title "tx state, vector"
vector 239 scenario.client[8].ppp[7].ppp transmissionState:vector ETV
attr interpolationmode sample-hold
attr source transmissionStateChanged
attr title "tx state, vector"
vector 240 scenario.client[8].ppp[8].ppp transmissionState:vector ETV
attr interpolationmode sample-hold
attr source transmissionStateChanged
attr title "tx state, vector"
vector 241 scenario.client[8].ppp[9].ppp transmissionState:vector ETV
attr interpolationmode sample-hold
attr source transmissionStateChanged
attr title "tx state, vector"
vector 242 scenario.client[8].ppp[10].ppp transmissionState:vector ETV
attr interpolationmode sample-hold
attr source transmissionStateChanged
attr title "tx state, vector"
vector 243 scenario.client[8].ppp[11].ppp transmissionState:vector ETV
attr interpolationmode sample-hold
attr source transmissionStateChanged
attr title "tx state, vector"
vector 244 scenario.client[8].ppp[12].ppp transmissionState:vector ETV
attr interpolationmode sample-hold
attr source transmissionStateChanged
attr title "tx state, vector"
vector 245 scenario.client[8].ppp[13].ppp transmissionState:vector ETV
attr interpolationmode sample-hold
attr source transmissionStateChanged
attr title "tx state, vector"
vector 246 scenario.client[8].ppp[14].ppp transmissionState:vector ETV
attr interpolationmode sample-hold
attr source transmissionStateChanged
attr title "tx state, vector"
vector 247 scenario.client[8].ppp[15].ppp transmissionState:vector ETV
attr interpolationmode sample-hold
attr source transmissionStateChanged
attr title "tx state, vector"
vector 248 scenario.client[8].ppp[16].ppp transmissionState:vector ETV
attr interpolationmode sample-hold
attr source transmissionStateChanged
attr title "tx state, vector"
vector 249 scenario.client[8].ppp[17].ppp transmissionState:vector ETV
attr interpolationmode sample-hold
attr source transmissionStateChanged
attr title "tx state, vector"
vector 250 scenario.client[8].ppp[18].ppp transmissionState:vector ETV
attr interpolationmode sample-hold
attr source transmissionStateChanged
attr title "tx state, vector"
vector 251 scenario.client[8].ppp[19].ppp transmissionState:vector ETV
attr interpolationmode sample-hold
attr source transmissionStateChanged
attr title "tx state, vector"
vector 252 scenario.client[8].ppp[20].ppp transmissionState:vector ETV
attr interpolationmode sample-hold
attr source transmissionStateChanged
attr title "tx state, vector"
vector 253 scenario.client[8].ppp[21].ppp transmissionState:vector ETV
attr interpolationmode sample-hold
attr source transmissionStateChanged
attr title "tx state, vector"
vector 254 scenario.client[8].ppp[22].ppp transmissionState:vector ETV
attr interpolationmode sample-hold
attr source transmissionStateChanged
attr title "tx state, vector"
vector 255 scenario.client[8].ppp[23].ppp transmissionState:vector ETV
attr interpolationmode sample-hold
attr source transmissionStateChanged
attr title "tx state, vector"
vector 256 scenario.client[8].ppp[24].ppp transmissionState:vector ETV
attr interpolationmode sample-hold
attr source transmissionStateChanged
attr title "tx state, vector"
vector 257 scenario.client[8].ppp[25].ppp transmissionState:vector ETV
attr interpolationmode sample-hold
attr source transmissionStateChanged
attr title "tx state, vector"
vector 258 scenario.client[8].ppp[26].ppp transmissionState:vector ETV
attr interpolationmode sample-hold
attr source transmissionStateChanged
attr title "tx state, vector"
vector 259 scenario.client[8].ppp[27].ppp transmissionState:vector ETV
attr interpolationmode sample-hold
attr source transmissionStateChanged
attr title "tx state, vector"
vector 260 scenario.client[8].ppp[28].ppp transmissionState:vector ETV
attr interpolationmode sample-hold
attr source transmissionStateChanged
attr title "tx state, vector"
vector 261 scenario.client[9].ppp[0].ppp transmissionState:vector ETV
attr interpolationmode sample-hold
attr source transmissionStateChanged
attr title "tx state, vector"
vector 262 scenario.client[9].ppp[1].ppp transmissionState:vector ETV
attr interpolationmode sample-hold
attr source transmissionStateChanged
attr title "tx state, vector"
vector 263 scenario.client[9].ppp[2].ppp transmissionState:vector ETV
attr interpolationmode sample-hold
attr source transmissionStateChanged
attr title "tx state, vector"
vector 264 scenario.client[9].ppp[3].ppp transmissionState:vector ETV
attr interpolationmode sample-hold
attr source transmissionStateChanged
attr title "tx state, vector"
vector 265 scenario.client[9].ppp[4].ppp transmissionState:vector ETV
attr interpolationmode sample-hold
attr source transmissionStateChanged
attr title "tx state, vector"
vector 266 scenario.client[9].ppp[5].ppp transmissionState:vector ETV
attr interpolationmode sample-hold
attr source transmissionStateChanged
attr title "tx state, vector"
vector 267 scenario.client[9].ppp[6].ppp transmissionState:vector ETV
attr interpolationmode sample-hold
attr source transmissionStateChanged
attr title "tx state, vector"
vector 268 scenario.client[9].ppp[7].ppp transmissionState:vector ETV
attr interpolationmode sample-hold
attr source transmissionStateChanged
attr title "tx state, vector"
vector 269 scenario.client[9].ppp[8].ppp transmissionState:vector ETV
attr interpolationmode sample-hold
attr source transmissionStateChanged
attr title "tx state, vector"
vector 270 scenario.client[9].ppp[9].ppp transmissionState:vector ETV
attr interpolationmode sample-hold
attr source transmissionStateChanged
attr title "tx state, vector"
vector 271 scenario.client[9].ppp[10].ppp transmissionState:vector ETV
attr interpolationmode sample-hold
attr source transmissionStateChanged
attr title "tx state, vector"
vector 272 scenario.client[9].ppp[11].ppp transmissionState:vector ETV
attr interpolationmode sample-hold
attr source transmissionStateChanged
attr title "tx state, vector"
vector 273 scenario.client[9].ppp[12].ppp transmissionState:vector ETV
attr interpolationmode sample-hold
attr source transmissionStateChanged
attr title "tx state, vector"
vector 274 scenario.client[9].ppp[13].ppp transmissionState:vector ETV
attr interpolationmode sample-hold
attr source transmissionStateChanged
attr title "tx state, vector"
vector 275 scenario.client[9].ppp[14].ppp transmissionState:vector ETV
attr interpolationmode sample-hold
attr source transmissionStateChanged
attr title "tx state, vector"
vector 276 scenario.client[9].ppp[15].ppp transmissionState:vector ETV
attr interpolationmode sample-hold
attr source transmissionStateChanged
attr title "tx state, vector"
vector 277 scenario.client[9].ppp[16].ppp transmissionState:vector ETV
attr interpolationmode sample-hold
attr source transmissionStateChanged
attr title "tx state, vector"
vector 278 scenario.client[9].ppp[17].ppp transmissionState:vector ETV
attr interpolationmode sample-hold
attr source transmissionStateChanged
attr title "tx state, vector"
vector 279 scenario.client[9].ppp[18].ppp transmissionState:vector ETV
attr interpolationmode sample-hold
attr source transmissionStateChanged
attr title "tx state, vector"
vector 280 scenario.client[9].ppp[19].ppp transmissionState:vector ETV
attr interpolationmode sample-hold
attr source transmissionStateChanged
attr title "tx state, vector"
vector 281 scenario.client[9].ppp[20].ppp transmissionState:vector ETV
attr interpolationmode sample-hold
attr source transmissionStateChanged
attr title "tx state, vector"
vector 282 scenario.client[9].ppp[21].ppp transmissionState:vector ETV
attr interpolationmode sample-hold
attr source transmissionStateChanged
attr title "tx state, vector"
vector 283 scenario.client[9].ppp[22].ppp transmissionState:vector ETV
attr interpolationmode sample-hold
attr source transmissionStateChanged
attr title "tx state, vector"
vector 284 scenario.client[9].ppp[23].ppp transmissionState:vector ETV
attr interpolationmode sample-hold
attr source transmissionStateChanged
attr title "tx state, vector"
vector 285 scenario.client[9].ppp[24].ppp transmissionState:vector ETV
attr interpolationmode sample-hold
attr source transmissionStateChanged
attr title "tx state, vector"
vector 286 scenario.client[9].ppp[25].ppp transmissionState:vector ETV
attr interpolationmode sample-hold
attr source transmissionStateChanged
attr title "tx state, vector"
vector 287 scenario.client[9].ppp[26].ppp transmissionState:vector ETV
attr interpolationmode sample-hold
attr source transmissionStateChanged
attr title "tx state, vector"
vector 288 scenario.client[9].ppp[27].ppp transmissionState:vector ETV
attr interpolationmode sample-hold
attr source transmissionStateChanged
attr title "tx state, vector"
vector 289 scenario.client[9].ppp[28].ppp transmissionState:vector ETV
attr interpolationmode sample-hold
attr source transmissionStateChanged
attr title "tx state, vector"
vector 290 scenario.client[10].ppp[0].ppp transmissionState:vector ETV
attr interpolationmode sample-hold
attr source transmissionStateChanged
attr title "tx state, vector"
vector 291 scenario.client[10].ppp[1].ppp transmissionState:vector ETV
attr interpolationmode sample-hold
attr source transmissionStateChanged
attr title "tx state, vector"
vector 292 scenario.client[10].ppp[2].ppp transmissionState:vector ETV
attr interpolationmode sample-hold
attr source transmissionStateChanged
attr title "tx state, vector"
vector 293 scenario.client[10].ppp[3].ppp transmissionState:vector ETV
attr interpolationmode sample-hold
attr source transmissionStateChanged
attr title "tx state, vector"
vector 294 scenario.client[10].ppp[4].ppp transmissionState:vector ETV
attr interpolationmode sample-hold
attr source transmissionStateChanged
attr title "tx state, vector"
vector 295 scenario.client[10].ppp[5].ppp transmissionState:vector ETV
attr interpolationmode sample-hold
attr source transmissionStateChanged
attr title "tx state, vector"
vector 296 scenario.client[10].ppp[6].ppp transmissionState:vector ETV
attr interpolationmode sample-hold
attr source transmissionStateChanged
attr title "tx state, vector"
vector 297 scenario.client[10].ppp[7].ppp transmissionState:vector ETV
attr interpolationmode sample-hold
attr source transmissionStateChanged
attr title "tx state, vector"
vector 298 scenario.client[10].ppp[8].ppp transmissionState:vector ETV
attr interpolationmode sample-hold
attr source transmissionStateChanged
attr title "tx state, vector"
vector 299 scenario.client[10].ppp[9].ppp transmissionState:vector ETV
attr interpolationmode sample-hold
attr source transmissionStateChanged
attr title "tx state, vector"
vector 300 scenario.client[10].ppp[10].ppp transmissionState:vector ETV
attr interpolationmode sample-hold
attr source transmissionStateChanged
attr title "tx state, vector"
vector 301 scenario.client[10].ppp[11].ppp transmissionState:vector ETV
attr interpolationmode sample-hold
attr source transmissionStateChanged
attr title "tx state, vector"
vector 302 scenario.client[10].ppp[12].ppp transmissionState:vector ETV
attr interpolationmode sample-hold
attr source transmissionStateChanged
attr title "tx state, vector"
vector 303 scenario.client[10].ppp[13].ppp transmissionState:vector ETV
attr interpolationmode sample-hold
attr source transmissionStateChanged
attr title "tx state, vector"
vector 304 scenario.client[10].ppp[14].ppp transmissionState:vector ETV
attr interpolationmode sample-hold
attr source transmissionStateChanged
attr title "tx state, vector"
vector 305 scenario.client[10].ppp[15].ppp transmissionState:vector ETV
attr interpolationmode sample-hold
attr source transmissionStateChanged
attr title "tx state, vector"
vector 306 scenario.client[10].ppp[16].ppp transmissionState:vector ETV
attr interpolationmode sample-hold
attr source transmissionStateChanged
attr title "tx state, vector"
vector 307 scenario.client[10].ppp[17].ppp transmissionState:vector ETV
attr interpolationmode sample-hold
attr source transmissionStateChanged
attr title "tx state, vector"
vector 308 scenario.client[10].ppp[18].ppp transmissionState:vector ETV
attr interpolationmode sample-hold
attr source transmissionStateChanged
attr title "tx state, vector"
vector 309 scenario.client[10].ppp[19].ppp transmissionState:vector ETV
attr interpolationmode sample-hold
attr source transmissionStateChanged
attr title "tx state, vector"
vector 310 scenario.client[10].ppp[20].ppp transmissionState:vector ETV
attr interpolationmode sample-hold
attr source transmissionStateChanged
attr title "tx state, vector"
vector 311 scenario.client[10].ppp[21].ppp transmissionState:vector ETV
attr interpolationmode sample-hold
attr source transmissionStateChanged
attr title "tx state, vector"
vector 312 scenario.client[10].ppp[22].ppp transmissionState:vector ETV
attr interpolationmode sample-hold
attr source transmissionStateChanged
attr title "tx state, vector"
vector 313 scenario.client[10].ppp[23].ppp transmissionState:vector ETV
attr interpolationmode sample-hold
attr source transmissionStateChanged
attr title "tx state, vector"
vector 314 scenario.client[10].ppp[24].ppp transmissionState:vector ETV
attr interpolationmode sample-hold
attr source transmissionStateChanged
attr title "tx state, vector"
vector 315 scenario.client[10].ppp[25].ppp transmissionState:vector ETV
attr interpolationmode sample-hold
attr source transmissionStateChanged
attr title "tx state, vector"
vector 316 scenario.client[10].ppp[26].ppp transmissionState:vector ETV
attr interpolationmode sample-hold
attr source transmissionStateChanged
attr title "tx state, vector"
vector 317 scenario.client[10].ppp[27].ppp transmissionState:vector ETV
attr interpolationmode sample-hold
attr source transmissionStateChanged
attr title "tx state, vector"
vector 318 scenario.client[10].ppp[28].ppp transmissionState:vector ETV
attr interpolationmode sample-hold
attr source transmissionStateChanged
attr title "tx state, vector"
vector 319 scenario.client[11].ppp[0].ppp transmissionState:vector ETV
attr interpolationmode sample-hold
attr source transmissionStateChanged
attr title "tx state, vector"
vector 320 scenario.client[11].ppp[1].ppp transmissionState:vector ETV
attr interpolationmode sample-hold
attr source transmissionStateChanged
attr title "tx state, vector"
vector 321 scenario.client[11].ppp[2].ppp transmissionState:vector ETV
attr interpolationmode sample-hold
attr source transmissionStateChanged
attr title "tx state, vector"
vector 322 scenario.client[11].ppp[3].ppp transmissionState:vector ETV
attr interpolationmode sample-hold
attr source transmissionStateChanged
attr title "tx state, vector"
vector 323 scenario.client[11].ppp[4].ppp transmissionState:vector ETV
attr interpolationmode sample-hold
attr source transmissionStateChanged
attr title "tx state, vector"
vector 324 scenario.client[11].ppp[5].ppp transmissionState:vector ETV
attr interpolationmode sample-hold
attr source transmissionStateChanged
attr title "tx state, vector"
vector 325 scenario.client[11].ppp[6].ppp transmissionState:vector ETV
attr interpolationmode sample-hold
attr source transmissionStateChanged
attr title "tx state, vector"
vector 326 scenario.client[11].ppp[7].ppp transmissionState:vector ETV
attr interpolationmode sample-hold
attr source transmissionStateChanged
attr title "tx state, vector"
vector 327 scenario.client[11].ppp[8].ppp transmissionState:vector ETV
attr interpolationmode sample-hold
attr source transmissionStateChanged
attr title "tx state, vector"
vector 328 scenario.client[11].ppp[9].ppp transmissionState:vector ETV
attr interpolationmode sample-hold
attr source transmissionStateChanged
attr title "tx state, vector"
vector 329 scenario.client[11].ppp[10].ppp transmissionState:vector ETV
attr interpolationmode sample-hold
attr source transmissionStateChanged
attr title "tx state, vector"
vector 330 scenario.client[11].ppp[11].ppp transmissionState:vector ETV
attr interpolationmode sample-hold
attr source transmissionStateChanged
attr title "tx state, vector"
vector 331 scenario.client[11].ppp[12].ppp transmissionState:vector ETV
attr interpolationmode sample-hold
attr source transmissionStateChanged
attr title "tx state, vector"
vector 332 scenario.client[11].ppp[13].ppp transmissionState:vector ETV
attr interpolationmode sample-hold
attr source transmissionStateChanged
attr title "tx state, vector"
vector 333 scenario.client[11].ppp[14].ppp transmissionState:vector ETV
attr interpolationmode sample-hold
attr source transmissionStateChanged
attr title "tx state, vector"
vector 334 scenario.client[11].ppp[15].ppp transmissionState:vector ETV
attr interpolationmode sample-hold
attr source transmissionStateChanged
attr title "tx state, vector"
vector 335 scenario.client[11].ppp[16].ppp transmissionState:vector ETV
attr interpolationmode sample-hold
attr source transmissionStateChanged
attr title "tx state, vector"
vector 336 scenario.client[11].ppp[17].ppp transmissionState:vector ETV
attr interpolationmode sample-hold
attr source transmissionStateChanged
attr title "tx state, vector"
vector 337 scenario.client[11].ppp[18].ppp transmissionState:vector ETV
attr interpolationmode sample-hold
attr source transmissionStateChanged
attr title "tx state, vector"
vector 338 scenario.client[11].ppp[19].ppp transmissionState:vector ETV
attr interpolationmode sample-hold
attr source transmissionStateChanged
attr title "tx state, vector"
vector 339 scenario.client[11].ppp[20].ppp transmissionState:vector ETV
attr interpolationmode sample-hold
attr source transmissionStateChanged
attr title "tx state, vector"
vector 340 scenario.client[11].ppp[21].ppp transmissionState:vector ETV
attr interpolationmode sample-hold
attr source transmissionStateChanged
attr title "tx state, vector"
vector 341 scenario.client[11].ppp[22].ppp transmissionState:vector ETV
attr interpolationmode sample-hold
attr source transmissionStateChanged
attr title "tx state, vector"
vector 342 scenario.client[11].ppp[23].ppp transmissionState:vector ETV
attr interpolationmode sample-hold
attr source transmissionStateChanged
attr title "tx state, vector"
vector 343 scenario.client[11].ppp[24].ppp transmissionState:vector ETV
attr interpolationmode sample-hold
attr source transmissionStateChanged
attr title "tx state, vector"
vector 344 scenario.client[11].ppp[25].ppp transmissionState:vector ETV
attr interpolationmode sample-hold
attr source transmissionStateChanged
attr title "tx state, vector"
vector 345 scenario.client[11].ppp[26].ppp transmissionState:vector ETV
attr interpolationmode sample-hold
attr source transmissionStateChanged
attr title "tx state, vector"
vector 346 scenario.client[11].ppp[27].ppp transmissionState:vector ETV
attr interpolationmode sample-hold
attr source transmissionStateChanged
attr title "tx state, vector"
vector 347 scenario.client[11].ppp[28].ppp transmissionState:vector ETV
attr interpolationmode sample-hold
attr source transmissionStateChanged
attr title "tx state, vector"
vector 348 scenario.client[12].ppp[0].ppp transmissionState:vector ETV
attr interpolationmode sample-hold
attr source transmissionStateChanged
attr title "tx state, vector"
vector 349 scenario.client[12].ppp[1].ppp transmissionState:vector ETV
attr interpolationmode sample-hold
attr source transmissionStateChanged
attr title "tx state, vector"
vector 350 scenario.client[12].ppp[2].ppp transmissionState:vector ETV
attr interpolationmode sample-hold
attr source transmissionStateChanged
attr title "tx state, vector"
vector 351 scenario.client[12].ppp[3].ppp transmissionState:vector ETV
attr interpolationmode sample-hold
attr source transmissionStateChanged
attr title "tx state, vector"
vector 352 scenario.client[12].ppp[4].ppp transmissionState:vector ETV
attr interpolationmode sample-hold
attr source transmissionStateChanged
attr title "tx state, vector"
vector 353 scenario.client[12].ppp[5].ppp transmissionState:vector ETV
attr interpolationmode sample-hold
attr source transmissionStateChanged
attr title "tx state, vector"
vector 354 scenario.client[12].ppp[6].ppp transmissionState:vector ETV
attr interpolationmode sample-hold
attr source transmissionStateChanged
attr title "tx state, vector"
vector 355 scenario.client[12].ppp[7].ppp transmissionState:vector ETV
attr interpolationmode sample-hold
attr source transmissionStateChanged
attr title "tx state, vector"
vector 356 scenario.client[12].ppp[8].ppp transmissionState:vector ETV
attr interpolationmode sample-hold
attr source transmissionStateChanged
attr title "tx state, vector"
vector 357 scenario.client[12].ppp[9].ppp transmissionState:vector ETV
attr interpolationmode sample-hold
attr source transmissionStateChanged
attr title "tx state, vector"
vector 358 scenario.client[12].ppp[10].ppp transmissionState:vector ETV
attr interpolationmode sample-hold
attr source transmissionStateChanged
attr title "tx state, vector"
vector 359 scenario.client[12].ppp[11].ppp transmissionState:vector ETV
attr interpolationmode sample-hold
attr source transmissionStateChanged
attr title "tx state, vector"
vector 360 scenario.client[12].ppp[12].ppp transmissionState:vector ETV
attr interpolationmode sample-hold
attr source transmissionStateChanged
attr title "tx state, vector"
vector 361 scenario.client[12].ppp[13].ppp transmissionState:vector ETV
attr interpolationmode sample-hold
attr source transmissionStateChanged
attr title "tx state, vector"
vector 362 scenario.client[12].ppp[14].ppp transmissionState:vector ETV
attr interpolationmode sample-hold
attr source transmissionStateChanged
attr title "tx state, vector"
vector 363 scenario.client[12].ppp[15].ppp transmissionState:vector ETV
attr interpolationmode sample-hold
attr source transmissionStateChanged
attr title "tx state, vector"
vector 364 scenario.client[12].ppp[16].ppp transmissionState:vector ETV
attr interpolationmode sample-hold
attr source transmissionStateChanged
attr title "tx state, vector"
vector 365 scenario.client[12].ppp[17].ppp transmissionState:vector ETV
attr interpolationmode sample-hold
attr source transmissionStateChanged
attr title "tx state, vector"
vector 366 scenario.client[12].ppp[18].ppp transmissionState:vector ETV
attr interpolationmode sample-hold
attr source transmissionStateChanged
attr title "tx state, vector"
vector 367 scenario.client[12].ppp[19].ppp transmissionState:vector ETV
attr interpolationmode sample-hold
attr source transmissionStateChanged
attr title "tx state, vector"
vector 368 scenario.client[12].ppp[20].ppp transmissionState:vector ETV
attr interpolationmode sample-hold
attr source transmissionStateChanged
attr title "tx state, vector"
vector 369 scenario.client[12].ppp[21].ppp transmissionState:vector ETV
attr interpolationmode sample-hold
attr source transmissionStateChanged
attr title "tx state, vector"
vector 370 scenario.client[12].ppp[22].ppp transmissionState:vector ETV
attr interpolationmode sample-hold
attr source transmissionStateChanged
attr title "tx state, vector"
vector 371 scenario.client[12].ppp[23].ppp transmissionState:vector ETV
attr interpolationmode sample-hold
attr source transmissionStateChanged
attr title "tx state, vector"
vector 372 scenario.client[12].ppp[24].ppp transmissionState:vector ETV
attr interpolationmode sample-hold
attr source transmissionStateChanged
attr title "tx state, vector"
vector 373 scenario.client[12].ppp[25].ppp transmissionState:vector ETV
attr interpolationmode sample-hold
attr source transmissionStateChanged
attr title "tx state, vector"
vector 374 scenario.client[12].ppp[26].ppp transmissionState:vector ETV
attr interpolationmode sample-hold
attr source transmissionStateChanged
attr title "tx state, vector"
vector 375 scenario.client[12].ppp[27].ppp transmissionState:vector ETV
attr interpolationmode sample-hold
attr source transmissionStateChanged
attr title "tx state, vector"
vector 376 scenario.client[12].ppp[28].ppp transmissionState:vector ETV
attr interpolationmode sample-hold
attr source transmissionStateChanged
attr title "tx state, vector"
vector 377 scenario.client[13].ppp[0].ppp transmissionState:vector ETV
attr interpolationmode sample-hold
attr source transmissionStateChanged
attr title "tx state, vector"
vector 378 scenario.client[13].ppp[1].ppp transmissionState:vector ETV
attr interpolationmode sample-hold
attr source transmissionStateChanged
attr title "tx state, vector"
vector 379 scenario.client[13].ppp[2].ppp transmissionState:vector ETV
attr interpolationmode sample-hold
attr source transmissionStateChanged
attr title "tx state, vector"
vector 380 scenario.client[13].ppp[3].ppp transmissionState:vector ETV
attr interpolationmode sample-hold
attr source transmissionStateChanged
attr title "tx state, vector"
vector 381 scenario.client[13].ppp[4].ppp transmissionState:vector ETV
attr interpolationmode sample-hold
attr source transmissionStateChanged
attr title "tx state, vector"
vector 382 scenario.client[13].ppp[5].ppp transmissionState:vector ETV
attr interpolationmode sample-hold
attr source transmissionStateChanged
attr title "tx state, vector"
vector 383 scenario.client[13].ppp[6].ppp transmissionState:vector ETV
attr interpolationmode sample-hold
attr source transmissionStateChanged
attr title "tx state, vector"
vector 384 scenario.client[13].ppp[7].ppp transmissionState:vector ETV
attr interpolationmode sample-hold
attr source transmissionStateChanged
attr title "tx state, vector"
vector 385 scenario.client[13].ppp[8].ppp transmissionState:vector ETV
attr interpolationmode sample-hold
attr source transmissionStateChanged
attr title "tx state, vector"
vector 386 scenario.client[13].ppp[9].ppp transmissionState:vector ETV
attr interpolationmode sample-hold
attr source transmissionStateChanged
attr title "tx state, vector"
vector 387 scenario.client[13].ppp[10].ppp transmissionState:vector ETV
attr interpolationmode sample-hold
attr source transmissionStateChanged
attr title "tx state, vector"
vector 388 scenario.client[13].ppp[11].ppp transmissionState:vector ETV
attr interpolationmode sample-hold
attr source transmissionStateChanged
attr title "tx state, vector"
vector 389 scenario.client[13].ppp[12].ppp transmissionState:vector ETV
attr interpolationmode sample-hold
attr source transmissionStateChanged
attr title "tx state, vector"
vector 390 scenario.client[13].ppp[13].ppp transmissionState:vector ETV
attr interpolationmode sample-hold
attr source transmissionStateChanged
attr title "tx state, vector"
vector 391 scenario.client[13].ppp[14].ppp transmissionState:vector ETV
attr interpolationmode sample-hold
attr source transmissionStateChanged
attr title "tx state, vector"
vector 392 scenario.client[13].ppp[15].ppp transmissionState:vector ETV
attr interpolationmode sample-hold
attr source transmissionStateChanged
attr title "tx state, vector"
vector 393 scenario.client[13].ppp[16].ppp transmissionState:vector ETV
attr interpolationmode sample-hold
attr source transmissionStateChanged
attr title "tx state, vector"
vector 394 scenario.client[13].ppp[17].ppp transmissionState:vector ETV
attr interpolationmode sample-hold
attr source transmissionStateChanged
attr title "tx state, vector"
vector 395 scenario.client[13].ppp[18].ppp transmissionState:vector ETV
attr interpolationmode sample-hold
attr source transmissionStateChanged
attr title "tx state, vector"
vector 396 scenario.client[13].ppp[19].ppp transmissionState:vector ETV
attr interpolationmode sample-hold
attr source transmissionStateChanged
attr title "tx state, vector"
vector 397 scenario.client[13].ppp[20].ppp transmissionState:vector ETV
attr interpolationmode sample-hold
attr source transmissionStateChanged
attr title "tx state, vector"
vector 398 scenario.client[13].ppp[21].ppp transmissionState:vector ETV
attr interpolationmode sample-hold
attr source transmissionStateChanged
attr title "tx state, vector"
vector 399 scenario.client[13].ppp[22].ppp transmissionState:vector ETV
attr interpolationmode sample-hold
attr source transmissionStateChanged
attr title "tx state, vector"
vector 400 scenario.client[13].ppp[23].ppp transmissionState:vector ETV
attr interpolationmode sample-hold
attr source transmissionStateChanged
attr title "tx state, vector"
vector 401 scenario.client[13].ppp[24].ppp transmissionState:vector ETV
attr interpolationmode sample-hold
attr source transmissionStateChanged
attr title "tx state, vector"
vector 402 scenario.client[13].ppp[25].ppp transmissionState:vector ETV
attr interpolationmode sample-hold
attr source transmissionStateChanged
attr title "tx state, vector"
vector 403 scenario.client[13].ppp[26].ppp transmissionState:vector ETV
attr interpolationmode sample-hold
attr source transmissionStateChanged
attr title "tx state, vector"
vector 404 scenario.client[13].ppp[27].ppp transmissionState:vector ETV
attr interpolationmode sample-hold
attr source transmissionStateChanged
attr title "tx state, vector"
vector 405 scenario.client[13].ppp[28].ppp transmissionState:vector ETV
attr interpolationmode sample-hold
attr source transmissionStateChanged
attr title "tx state, vector"
vector 406 scenario.client[14].ppp[0].ppp transmissionState:vector ETV
attr interpolationmode sample-hold
attr source transmissionStateChanged
attr title "tx state, vector"
vector 407 scenario.client[14].ppp[1].ppp transmissionState:vector ETV
attr interpolationmode sample-hold
attr source transmissionStateChanged
attr title "tx state, vector"
vector 408 scenario.client[14].ppp[2].ppp transmissionState:vector ETV
attr interpolationmode sample-hold
attr source transmissionStateChanged
attr title "tx state, vector"
vector 409 scenario.client[14].ppp[3].ppp transmissionState:vector ETV
attr interpolationmode sample-hold
attr source transmissionStateChanged
attr title "tx state, vector"
vector 410 scenario.client[14].ppp[4].ppp transmissionState:vector ETV
attr interpolationmode sample-hold
attr source transmissionStateChanged
attr title "tx state, vector"
vector 411 scenario.client[14].ppp[5].ppp transmissionState:vector ETV
attr interpolationmode sample-hold
attr source transmissionStateChanged
attr title "tx state, vector"
vector 412 scenario.client[14].ppp[6].ppp transmissionState:vector ETV
attr interpolationmode sample-hold
attr source transmissionStateChanged
attr title "tx state, vector"
vector 413 scenario.client[14].ppp[7].ppp transmissionState:vector ETV
attr interpolationmode sample-hold
attr source transmissionStateChanged
attr title "tx state, vector"
vector 414 scenario.client[14].ppp[8].ppp transmissionState:vector ETV
attr interpolationmode sample-hold
attr source transmissionStateChanged
attr title "tx state, vector"
vector 415 scenario.client[14].ppp[9].ppp transmissionState:vector ETV
attr interpolationmode sample-hold
attr source transmissionStateChanged
attr title "tx state, vector"
vector 416 scenario.client[14].ppp[10].ppp transmissionState:vector ETV
attr interpolationmode sample-hold
attr source transmissionStateChanged
attr title "tx state, vector"
vector 417 scenario.client[14].ppp[11].ppp transmissionState:vector ETV
attr interpolationmode sample-hold
attr source transmissionStateChanged
attr title "tx state, vector"
vector 418 scenario.client[14].ppp[12].ppp transmissionState:vector ETV
attr interpolationmode sample-hold
attr source transmissionStateChanged
attr title "tx state, vector"
vector 419 scenario.client[14].ppp[13].ppp transmissionState:vector ETV
attr interpolationmode sample-hold
attr source transmissionStateChanged
attr title "tx state, vector"
vector 420 scenario.client[14].ppp[14].ppp transmissionState:vector ETV
attr interpolationmode sample-hold
attr source transmissionStateChanged
attr title "tx state, vector"
vector 421 scenario.client[14].ppp[15].ppp transmissionState:vector ETV
attr interpolationmode sample-hold
attr source transmissionStateChanged
attr title "tx state, vector"
vector 422 scenario.client[14].ppp[16].ppp transmissionState:vector ETV
attr interpolationmode sample-hold
attr source transmissionStateChanged
attr title "tx state, vector"
vector 423 scenario.client[14].ppp[17].ppp transmissionState:vector ETV
attr interpolationmode sample-hold
attr source transmissionStateChanged
attr title "tx state, vector"
vector 424 scenario.client[14].ppp[18].ppp transmissionState:vector ETV
attr interpolationmode sample-hold
attr source transmissionStateChanged
attr title "tx state, vector"
vector 425 scenario.client[14].ppp[19].ppp transmissionState:vector ETV
attr interpolationmode sample-hold
attr source transmissionStateChanged
attr title "tx state, vector"
vector 426 scenario.client[14].ppp[20].ppp transmissionState:vector ETV
attr interpolationmode sample-hold
attr source transmissionStateChanged
attr title "tx state, vector"
vector 427 scenario.client[14].ppp[21].ppp transmissionState:vector ETV
attr interpolationmode sample-hold
attr source transmissionStateChanged
attr title "tx state, vector"
vector 428 scenario.client[14].ppp[22].ppp transmissionState:vector ETV
attr interpolationmode sample-hold
attr source transmissionStateChanged
attr title "tx state, vector"
vector 429 scenario.client[14].ppp[23].ppp transmissionState:vector ETV
attr interpolationmode sample-hold
attr source transmissionStateChanged
attr title "tx state, vector"
vector 430 scenario.client[14].ppp[24].ppp transmissionState:vector ETV
attr interpolationmode sample-hold
attr source transmissionStateChanged
attr title "tx state, vector"
vector 431 scenario.client[14].ppp[25].ppp transmissionState:vector ETV
attr interpolationmode sample-hold
attr source transmissionStateChanged
attr title "tx state, vector"
vector 432 scenario.client[14].ppp[26].ppp transmissionState:vector ETV
attr interpolationmode sample-hold
attr source transmissionStateChanged
attr title "tx state, vector"
vector 433 scenario.client[14].ppp[27].ppp transmissionState:vector ETV
attr interpolationmode sample-hold
attr source transmissionStateChanged
attr title "tx state, vector"
vector 434 scenario.client[14].ppp[28].ppp transmissionState:vector ETV
attr interpolationmode sample-hold
attr source transmissionStateChanged
attr title "tx state, vector"
vector 435 scenario.client[15].ppp[0].ppp transmissionState:vector ETV
attr interpolationmode sample-hold
attr source transmissionStateChanged
attr title "tx state, vector"
vector 436 scenario.client[15].ppp[1].ppp transmissionState:vector ETV
attr interpolationmode sample-hold
attr source transmissionStateChanged
attr title "tx state, vector"
vector 437 scenario.client[15].ppp[2].ppp transmissionState:vector ETV
attr interpolationmode sample-hold
attr source transmissionStateChanged
attr title "tx state, vector"
vector 438 scenario.client[15].ppp[3].ppp transmissionState:vector ETV
attr interpolationmode sample-hold
attr source transmissionStateChanged
attr title "tx state, vector"
vector 439 scenario.client[15].ppp[4].ppp transmissionState:vector ETV
attr interpolationmode sample-hold
attr source transmissionStateChanged
attr title "tx state, vector"
vector 440 scenario.client[15].ppp[5].ppp transmissionState:vector ETV
attr interpolationmode sample-hold
attr source transmissionStateChanged
attr title "tx state, vector"
vector 441 scenario.client[15].ppp[6].ppp transmissionState:vector ETV
attr interpolationmode sample-hold
attr source transmissionStateChanged
attr title "tx state, vector"
vector 442 scenario.client[15].ppp[7].ppp transmissionState:vector ETV
attr interpolationmode sample-hold
attr source transmissionStateChanged
attr title "tx state, vector"
vector 443 scenario.client[15].ppp[8].ppp transmissionState:vector ETV
attr interpolationmode sample-hold
attr source transmissionStateChanged
attr title "tx state, vector"
vector 444 scenario.client[15].ppp[9].ppp transmissionState:vector ETV
attr interpolationmode sample-hold
attr source transmissionStateChanged
attr title "tx state, vector"
vector 445 scenario.client[15].ppp[10].ppp transmissionState:vector ETV
attr interpolationmode sample-hold
attr source transmissionStateChanged
attr title "tx state, vector"
vector 446 scenario.client[15].ppp[11].ppp transmissionState:vector ETV
attr interpolationmode sample-hold
attr source transmissionStateChanged
attr title "tx state, vector"
vector 447 scenario.client[15].ppp[12].ppp transmissionState:vector ETV
attr interpolationmode sample-hold
attr source transmissionStateChanged
attr title "tx state, vector"
vector 448 scenario.client[15].ppp[13].ppp transmissionState:vector ETV
attr interpolationmode sample-hold
attr source transmissionStateChanged
attr title "tx state, vector"
vector 449 scenario.client[15].ppp[14].ppp transmissionState:vector ETV
attr interpolationmode sample-hold
attr source transmissionStateChanged
attr title "tx state, vector"
vector 450 scenario.client[15].ppp[15].ppp transmissionState:vector ETV
attr interpolationmode sample-hold
attr source transmissionStateChanged
attr title "tx state, vector"
vector 451 scenario.client[15].ppp[16].ppp transmissionState:vector ETV
attr interpolationmode sample-hold
attr source transmissionStateChanged
attr title "tx state, vector"
vector 452 scenario.client[15].ppp[17].ppp transmissionState:vector ETV
attr interpolationmode sample-hold
attr source transmissionStateChanged
attr title "tx state, vector"
vector 453 scenario.client[15].ppp[18].ppp transmissionState:vector ETV
attr interpolationmode sample-hold
attr source transmissionStateChanged
attr title "tx state, vector"
vector 454 scenario.client[15].ppp[19].ppp transmissionState:vector ETV
attr interpolationmode sample-hold
attr source transmissionStateChanged
attr title "tx state, vector"
vector 455 scenario.client[15].ppp[20].ppp transmissionState:vector ETV
attr interpolationmode sample-hold
attr source transmissionStateChanged
attr title "tx state, vector"
vector 456 scenario.client[15].ppp[21].ppp transmissionState:vector ETV
attr interpolationmode sample-hold
attr source transmissionStateChanged
attr title "tx state, vector"
vector 457 scenario.client[15].ppp[22].ppp transmissionState:vector ETV
attr interpolationmode sample-hold
[...]
246	157637 11 0 0 0 0 1 0 0 0 0
247	157648 11 0 0 0 0 1 0 0 0 0
248	157659 11 0 0 0 0 1 0 0 0 0
249	157670 11 0 0 0 0 1 0 0 0 0
250	157681 11 0 0 0 0 1 0 0 0 0
251	157692 11 0 0 0 0 1 0 0 0 0
252	157703 11 0 0 0 0 1 0 0 0 0
253	157714 11 0 0 0 0 1 0 0 0 0
254	157725 11 0 0 0 0 1 0 0 0 0
255	157736 11 0 0 0 0 1 0 0 0 0
256	157747 11 0 0 0 0 1 0 0 0 0
257	157758 11 0 0 0 0 1 0 0 0 0
258	157769 11 0 0 0 0 1 0 0 0 0
259	157780 11 0 0 0 0 1 0 0 0 0
260	157791 11 0 0 0 0 1 0 0 0 0
261	157802 11 0 0 0 0 1 0 0 0 0
262	157813 11 0 0 0 0 1 0 0 0 0
263	157824 11 0 0 0 0 1 0 0 0 0
264	157835 11 0 0 0 0 1 0 0 0 0
265	157846 11 0 0 0 0 1 0 0 0 0
266	157857 11 0 0 0 0 1 0 0 0 0
267	157868 11 0 0 0 0 1 0 0 0 0
268	157879 11 0 0 0 0 1 0 0 0 0
269	157890 11 0 0 0 0 1 0 0 0 0
270	157901 11 0 0 0 0 1 0 0 0 0
271	157912 11 0 0 0 0 1 0 0 0 0
272	157923 11 0 0 0 0 1 0 0 0 0
273	157934 11 0 0 0 0 1 0 0 0 0
274	157945 11 0 0 0 0 1 0 0 0 0
275	157956 11 0 0 0 0 1 0 0 0 0
276	157967 11 0 0 0 0 1 0 0 0 0
277	157978 11 0 0 0 0 1 0 0 0 0
278	157989 11 0 0 0 0 1 0 0 0 0
279	158000 11 0 0 0 0 1 0 0 0 0
280	158011 11 0 0 0 0 1 0 0 0 0
281	158022 11 0 0 0 0 1 0 0 0 0
282	158033 11 0 0 0 0 1 0 0 0 0
283	158044 11 0 0 0 0 1 0 0 0 0
284	158055 11 0 0 0 0 1 0 0 0 0
285	158066 11 0 0 0 0 1 0 0 0 0
286	158077 11 0 0 0 0 1 0 0 0 0
287	158088 11 0 0 0 0 1 0 0 0 0
288	158099 11 0 0 0 0 1 0 0 0 0
289	158110 11 0 0 0 0 1 0 0 0 0
290	158121 11 0 0 0 0 1 0 0 0 0
291	158132 11 0 0 0 0 1 0 0 0 0
292	158143 11 0 0 0 0 1 0 0 0 0
293	158154 11 0 0 0 0 1 0 0 0 0
294	158165 11 0 0 0 0 1 0 0 0 0
295	158176 11 0 0 0 0 1 0 0 0 0
296	158187 11 0 0 0 0 1 0 0 0 0
297	158198 11 0 0 0 0 1 0 0 0 0
298	158209 11 0 0 0 0 1 0 0 0 0
299	158220 11 0 0 0 0 1 0 0 0 0
300	158231 11 0 0 0 0 1 0 0 0 0
301	158242 11 0 0 0 0 1 0 0 0 0
302	158253 11 0 0 0 0 1 0 0 0 0
303	158264 11 0 0 0 0 1 0 0 0 0
304	158275 11 0 0 0 0 1 0 0 0 0
305	158286 11 0 0 0 0 1 0 0 0 0
306	158297 11 0 0 0 0 1 0 0 0 0
307	158308 11 0 0 0 0 1 0 0 0 0
308	158319 11 0 0 0 0 1 0 0 0 0
309	158330 11 0 0 0 0 1 0 0 0 0
310	158341 11 0 0 0 0 1 0 0 0 0
311	158352 11 0 0 0 0 1 0 0 0 0
312	158363 11 0 0 0 0 1 0 0 0 0
313	158374 11 0 0 0 0 1 0 0 0 0
314	158385 11 0 0 0 0 1 0 0 0 0
315	158396 11 0 0 0 0 1 0 0 0 0
316	158407 11 0 0 0 0 1 0 0 0 0
317	158418 11 0 0 0 0 1 0 0 0 0
318	158429 11 0 0 0 0 1 0 0 0 0
319	158440 11 0 0 0 0 1 0 0 0 0
320	158451 11 0 0 0 0 1 0 0 0 0
321	158462 11 0 0 0 0 1 0 0 0 0
322	158473 11 0 0 0 0 1 0 0 0 0
323	158484 11 0 0 0 0 1 0 0 0 0
324	158495 11 0 0 0 0 1 0 0 0 0
325	158506 11 0 0 0 0 1 0 0 0 0
326	158517 11 0 0 0 0 1 0 0 0 0
327	158528 11 0 0 0 0 1 0 0 0 0
328	158539 11 0 0 0 0 1 0 0 0 0
329	158550 11 0 0 0 0 1 0 0 0 0
330	158561 11 0 0 0 0 1 0 0 0 0
331	158572 11 0 0 0 0 1 0 0 0 0
332	158583 11 0 0 0 0 1 0 0 0 0
333	158594 11 0 0 0 0 1 0 0 0 0
334	158605 11 0 0 0 0 1 0 0 0 0
335	158616 11 0 0 0 0 1 0 0 0 0
336	158627 11 0 0 0 0 1 0 0 0 0
337	158638 11 0 0 0 0 1 0 0 0 0
338	158649 11 0 0 0 0 1 0 0 0 0
339	158660 11 0 0 0 0 1 0 0 0 0
340	158671 11 0 0 0 0 1 0 0 0 0
341	158682 11 0 0 0 0 1 0 0 0 0
342	158693 11 0 0 0 0 1 0 0 0 0
343	158704 11 0 0 0 0 1 0 0 0 0
344	158715 11 0 0 0 0 1 0 0 0 0
345	158726 11 0 0 0 0 1 0 0 0 0
346	158737 11 0 0 0 0 1 0 0 0 0
347	158748 11 0 0 0 0 1 0 0 0 0
348	158759 11 0 0 0 0 1 0 0 0 0
349	158770 11 0 0 0 0 1 0 0 0 0
350	158781 11 0 0 0 0 1 0 0 0 0
351	158792 11 0 0 0 0 1 0 0 0 0
352	158803 11 0 0 0 0 1 0 0 0 0
353	158814 11 0 0 0 0 1 0 0 0 0
354	158825 11 0 0 0 0 1 0 0 0 0
355	158836 11 0 0 0 0 1 0 0 0 0
356	158847 11 0 0 0 0 1 0 0 0 0
357	158858 11 0 0 0 0 1 0 0 0 0
358	158869 11 0 0 0 0 1 0 0 0 0
359	158880 11 0 0 0 0 1 0 0 0 0
360	158891 11 0 0 0 0 1 0 0 0 0
361	158902 11 0 0 0 0 1 0 0 0 0
362	158913 11 0 0 0 0 1 0 0 0 0
363	158924 11 0 0 0 0 1 0 0 0 0
364	158935 11 0 0 0 0 1 0 0 0 0
365	158946 11 0 0 0 0 1 0 0 0 0
366	158957 11 0 0 0 0 1 0 0 0 0
367	158968 11 0 0 0 0 1 0 0 0 0
368	158979 11 0 0 0 0 1 0 0 0 0
369	158990 11 0 0 0 0 1 0 0 0 0
370	159001 11 0 0 0 0 1 0 0 0 0
371	159012 11 0 0 0 0 1 0 0 0 0
372	159023 11 0 0 0 0 1 0 0 0 0
373	159034 11 0 0 0 0 1 0 0 0 0
374	159045 11 0 0 0 0 1 0 0 0 0
375	159056 11 0 0 0 0 1 0 0 0 0
376	159067 11 0 0 0 0 1 0 0 0 0
377	159078 11 0 0 0 0 1 0 0 0 0
378	159089 11 0 0 0 0 1 0 0 0 0
379	159100 11 0 0 0 0 1 0 0 0 0
380	159111 11 0 0 0 0 1 0 0 0 0
381	159122 11 0 0 0 0 1 0 0 0 0
382	159133 11 0 0 0 0 1 0 0 0 0
383	159144 11 0 0 0 0 1 0 0 0 0
384	159155 11 0 0 0 0 1 0 0 0 0
385	159166 11 0 0 0 0 1 0 0 0 0
386	159177 11 0 0 0 0 1 0 0 0 0
387	159188 11 0 0 0 0 1 0 0 0 0
388	159199 11 0 0 0 0 1 0 0 0 0
389	159210 11 0 0 0 0 1 0 0 0 0
390	159221 11 0 0 0 0 1 0 0 0 0
391	159232 11 0 0 0 0 1 0 0 0 0
392	159243 11 0 0 0 0 1 0 0 0 0
393	159254 11 0 0 0 0 1 0 0 0 0
394	159265 11 0 0 0 0 1 0 0 0 0
395	159276 11 0 0 0 0 1 0 0 0 0
396	159287 11 0 0 0 0 1 0 0 0 0
397	159298 11 0 0 0 0 1 0 0 0 0
398	159309 11 0 0 0 0 1 0 0 0 0
399	159320 11 0 0 0 0 1 0 0 0 0
400	159331 11 0 0 0 0 1 0 0 0 0
401	159342 11 0 0 0 0 1 0 0 0 0
402	159353 11 0 0 0 0 1 0 0 0 0
403	159364 11 0 0 0 0 1 0 0 0 0
404	159375 11 0 0 0 0 1 0 0 0 0
405	159386 11 0 0 0 0 1 0 0 0 0
406	159397 11 0 0 0 0 1 0 0 0 0
407	159408 11 0 0 0 0 1 0 0 0 0
408	159419 11 0 0 0 0 1 0 0 0 0
409	159430 11 0 0 0 0 1 0 0 0 0
410	159441 11 0 0 0 0 1 0 0 0 0
411	159452 11 0 0 0 0 1 0 0 0 0
412	159463 11 0 0 0 0 1 0 0 0 0
413	159474 11 0 0 0 0 1 0 0 0 0
414	159485 11 0 0 0 0 1 0 0 0 0
415	159496 11 0 0 0 0 1 0 0 0 0
416	159507 11 0 0 0 0 1 0 0 0 0
417	159518 11 0 0 0 0 1 0 0 0 0
418	159529 11 0 0 0 0 1 0 0 0 0
419	159540 11 0 0 0 0 1 0 0 0 0
420	159551 11 0 0 0 0 1 0 0 0 0
421	159562 11 0 0 0 0 1 0 0 0 0
422	159573 11 0 0 0 0 1 0 0 0 0
423	159584 11 0 0 0 0 1 0 0 0 0
424	159595 11 0 0 0 0 1 0 0 0 0
425	159606 11 0 0 0 0 1 0 0 0 0
426	159617 11 0 0 0 0 1 0 0 0 0
427	159628 11 0 0 0 0 1 0 0 0 0
428	159639 11 0 0 0 0 1 0 0 0 0
429	159650 11 0 0 0 0 1 0 0 0 0
430	159661 11 0 0 0 0 1 0 0 0 0
431	159672 11 0 0 0 0 1 0 0 0 0
432	159683 11 0 0 0 0 1 0 0 0 0
433	159694 11 0 0 0 0 1 0 0 0 0
434	159705 11 0 0 0 0 1 0 0 0 0
435	159716 11 0 0 0 0 1 0 0 0 0
436	159727 11 0 0 0 0 1 0 0 0 0
437	159738 11 0 0 0 0 1 0 0 0 0
438	159749 11 0 0 0 0 1 0 0 0 0
439	159760 11 0 0 0 0 1 0 0 0 0
440	159771 11 0 0 0 0 1 0 0 0 0
441	159782 11 0 0 0 0 1 0 0 0 0
442	159793 11 0 0 0 0 1 0 0 0 0
443	159804 11 0 0 0 0 1 0 0 0 0
444	159815 11 0 0 0 0 1 0 0 0 0
445	159826 11 0 0 0 0 1 0 0 0 0
446	159837 11 0 0 0 0 1 0 0 0 0
447	159848 11 0 0 0 0 1 0 0 0 0
448	159859 11 0 0 0 0 1 0 0 0 0
449	159870 11 0 0 0 0 1 0 0 0 0
450	159881 11 0 0 0 0 1 0 0 0 0
451	159892 11 0 0 0 0 1 0 0 0 0
452	159903 11 0 0 0 0 1 0 0 0 0
453	159914 11 0 0 0 0 1 0 0 0 0
454	159925 11 0 0 0 0 1 0 0 0 0
455	159936 11 0 0 0 0 1 0 0 0 0
456	159947 11 0 0 0 0 1 0 0 0 0
457	159958 11 0 0 0 0 1 0 0 0 0
458	159969 11 0 0 0 0 1 0 0 0 0
459	159980 11 0 0 0 0 1 0 0 0 0
460	159991 11 0 0 0 0 1 0 0 0 0
461	160002 11 0 0 0 0 1 0 0 0 0
462	160013 11 0 0 0 0 1 0 0 0 0
463	160024 11 0 0 0 0 1 0 0 0 0
464	160035 11 0 0 0 0 1 0 0 0 0
465	160046 11 0 0 0 0 1 0 0 0 0
466	160057 11 0 0 0 0 1 0 0 0 0
467	160068 11 0 0 0 0 1 0 0 0 0
468	160079 11 0 0 0 0 1 0 0 0 0
469	160090 11 0 0 0 0 1 0 0 0 0
470	160101 11 0 0 0 0 1 0 0 0 0
471	160112 11 0 0 0 0 1 0 0 0 0
472	160123 11 0 0 0 0 1 0 0 0 0
473	160134 11 0 0 0 0 1 0 0 0 0
474	160145 11 0 0 0 0 1 0 0 0 0
475	160156 11 0 0 0 0 1 0 0 0 0
476	160167 11 0 0 0 0 1 0 0 0 0
477	160178 11 0 0 0 0 1 0 0 0 0
478	160189 11 0 0 0 0 1 0 0 0 0
479	160200 11 0 0 0 0 1 0 0 0 0
480	160211 11 0 0 0 0 1 0 0 0 0
481	160222 11 0 0 0 0 1 0 0 0 0
482	160233 11 0 0 0 0 1 0 0 0 0
483	160244 11 0 0 0 0 1 0 0 0 0
484	160255 11 0 0 0 0 1 0 0 0 0
485	160266 11 0 0 0 0 1 0 0 0 0
486	160277 11 0 0 0 0 1 0 0 0 0
487	160288 11 0 0 0 0 1 0 0 0 0
488	160299 11 0 0 0 0 1 0 0 0 0
489	160310 11 0 0 0 0 1 0 0 0 0
490	160321 11 0 0 0 0 1 0 0 0 0
491	160332 11 0 0 0 0 1 0 0 0 0
492	160343 11 0 0 0 0 1 0 0 0 0
493	160354 11 0 0 0 0 1 0 0 0 0
494	160365 11 0 0 0 0 1 0 0 0 0
495	160376 11 0 0 0 0 1 0 0 0 0
496	160387 11 0 0 0 0 1 0 0 0 0
497	160398 11 0 0 0 0 1 0 0 0 0
498	160409 11 0 0 0 0 1 0 0 0 0
499	160420 11 0 0 0 0 1 0 0 0 0
500	160431 11 0 0 0 0 1 0 0 0 0
501	160442 11 0 0 0 0 1 0 0 0 0
502	160453 11 0 0 0 0 1 0 0 0 0
503	160464 11 0 0 0 0 1 0 0 0 0
504	160475 11 0 0 0 0 1 0 0 0 0
505	160486 11 0 0 0 0 1 0 0 0 0
506	160497 11 0 0 0 0 1 0 0 0 0
507	160508 11 0 0 0 0 1 0 0 0 0
508	160519 11 0 0 0 0 1 0 0 0 0
509	160530 11 0 0 0 0 1 0 0 0 0
510	160541 11 0 0 0 0 1 0 0 0 0
511	160552 11 0 0 0 0 1 0 0 0 0
512	160563 11 0 0 0 0 1 0 0 0 0
513	160574 11 0 0 0 0 1 0 0 0 0
514	160585 11 0 0 0 0 1 0 0 0 0
515	160596 11 0 0 0 0 1 0 0 0 0
516	160607 11 0 0 0 0 1 0 0 0 0
517	160618 11 0 0 0 0 1 0 0 0 0
518	160629 11 0 0 0 0 1 0 0 0 0
519	160640 11 0 0 0 0 1 0 0 0 0
520	160651 11 0 0 0 0 1 0 0 0 0
521	160662 11 0 0 0 0 1 0 0 0 0
522	160673 11 0 0 0 0 1 0 0 0 0
523	160684 11 0 0 0 0 1 0 0 0 0
524	160695 11 0 0 0 0 1 0 0 0 0
525	160706 11 0 0 0 0 1 0 0 0 0
526	160717 11 0 0 0 0 1 0 0 0 0
527	160728 11 0 0 0 0 1 0 0 0 0
528	160739 11 0 0 0 0 1 0 0 0 0
529	160750 11 0 0 0 0 1 0 0 0 0
530	160761 11 0 0 0 0 1 0 0 0 0
531	160772 11 0 0 0 0 1 0 0 0 0
532	160783 11 0 0 0 0 1 0 0 0 0
533	160794 11 0 0 0 0 1 0 0 0 0
534	160805 11 0 0 0 0 1 0 0 0 0
535	160816 11 0 0 0 0 1 0 0 0 0
536	160827 11 0 0 0 0 1 0 0 0 0
537	160838 11 0 0 0 0 1 0 0 0 0
538	160849 11 0 0 0 0 1 0 0 0 0
539	160860 11 0 0 0 0 1 0 0 0 0
540	160871 11 0 0 0 0 1 0 0 0 0
541	160882 11 0 0 0 0 1 0 0 0 0
542	160893 11 0 0 0 0 1 0 0 0 0
543	160904 11 0 0 0 0 1 0 0 0 0
544	160915 11 0 0 0 0 1 0 0 0 0
545	160926 11 0 0 0 0 1 0 0 0 0
546	160937 11 0 0 0 0 1 0 0 0 0
547	160948 11 0 0 0 0 1 0 0 0 0
548	160959 11 0 0 0 0 1 0 0 0 0
549	160970 11 0 0 0 0 1 0 0 0 0
550	160981 11 0 0 0 0 1 0 0 0 0
551	160992 11 0 0 0 0 1 0 0 0 0
552	161003 11 0 0 0 0 1 0 0 0 0
553	161014 11 0 0 0 0 1 0 0 0 0
554	161025 11 0 0 0 0 1 0 0 0 0
555	161036 11 0 0 0 0 1 0 0 0 0
556	161047 11 0 0 0 0 1 0 0 0 0
557	161058 11 0 0 0 0 1 0 0 0 0
558	161069 11 0 0 0 0 1 0 0 0 0
559	161080 11 0 0 0 0 1 0 0 0 0
560	161091 11 0 0 0 0 1 0 0 0 0
561	161102 11 0 0 0 0 1 0 0 0 0
562	161113 11 0 0 0 0 1 0 0 0 0
563	161124 11 0 0 0 0 1 0 0 0 0
564	161135 11 0 0 0 0 1 0 0 0 0
565	161146 11 0 0 0 0 1 0 0 0 0
566	161157 11 0 0 0 0 1 0 0 0 0
567	161168 11 0 0 0 0 1 0 0 0 0
568	161179 11 0 0 0 0 1 0 0 0 0
569	161190 11 0 0 0 0 1 0 0 0 0
570	161201 11 0 0 0 0 1 0 0 0 0
571	161212 11 0 0 0 0 1 0 0 0 0
572	161223 11 0 0 0 0 1 0 0 0 0
573	161234 11 0 0 0 0 1 0 0 0 0
574	161245 11 0 0 0 0 1 0 0 0 0
575	161256 11 0 0 0 0 1 0 0 0 0
576	161267 11 0 0 0 0 1 0 0 0 0
577	161278 11 0 0 0 0 1 0 0 0 0
578	161289 11 0 0 0 0 1 0 0 0 0
579	161300 11 0 0 0 0 1 0 0 0 0
580	161311 11 0 0 0 0 1 0 0 0 0
581	161322 11 0 0 0 0 1 0 0 0 0
582	161333 11 0 0 0 0 1 0 0 0 0
583	161344 11 0 0 0 0 1 0 0 0 0
584	161355 11 0 0 0 0 1 0 0 0 0
585	161366 11 0 0 0 0 1 0 0 0 0
586	161377 11 0 0 0 0 1 0 0 0 0
587	161388 11 0 0 0 0 1 0 0 0 0
588	161399 11 0 0 0 0 1 0 0 0 0
589	161410 11 0 0 0 0 1 0 0 0 0
590	161421 11 0 0 0 0 1 0 0 0 0
591	161432 11 0 0 0 0 1 0 0 0 0
592	161443 11 0 0 0 0 1 0 0 0 0
593	161454 11 0 0 0 0 1 0 0 0 0
594	161465 11 0 0 0 0 1 0 0 0 0
595	161476 11 0 0 0 0 1 0 0 0 0
596	161487 11 0 0 0 0 1 0 0 0 0
597	161498 11 0 0 0 0 1 0 0 0 0
598	161509 11 0 0 0 0 1 0 0 0 0
599	161520 11 0 0 0 0 1 0 0 0 0
600	161531 11 0 0 0 0 1 0 0 0 0
601	161542 11 0 0 0 0 1 0 0 0 0
602	161553 11 0 0 0 0 1 0 0 0 0
603	161564 11 0 0 0 0 1 0 0 0 0
604	161575 11 0 0 0 0 1 0 0 0 0
605	161586 11 0 0 0 0 1 0 0 0 0
606	161597 11 0 0 0 0 1 0 0 0 0
607	161608 11 0 0 0 0 1 0 0 0 0
608	161619 11 0 0 0 0 1 0 0 0 0
609	161630 11 0 0 0 0 1 0 0 0 0
610	161641 11 0 0 0 0 1 0 0 0 0
611	161652 11 0 0 0 0 1 0 0 0 0
612	161663 11 0 0 0 0 1 0 0 0 0
613	161674 11 0 0 0 0 1 0 0 0 0
614	161685 11 0 0 0 0 1 0 0 0 0
615	161696 11 0 0 0 0 1 0 0 0 0
616	161707 11 0 0 0 0 1 0 0 0 0
617	161718 11 0 0 0 0 1 0 0 0 0
618	161729 11 0 0 0 0 1 0 0 0 0
619	161740 11 0 0 0 0 1 0 0 0 0
620	161751 11 0 0 0 0 1 0 0 0 0
621	161762 11 0 0 0 0 1 0 0 0 0
622	161773 11 0 0 0 0 1 0 0 0 0
623	161784 11 0 0 0 0 1 0 0 0 0
624	161795 11 0 0 0 0 1 0 0 0 0
625	161806 11 0 0 0 0 1 0 0 0 0
626	161817 11 0 0 0 0 1 0 0 0 0
627	161828 11 0 0 0 0 1 0 0 0 0
628	161839 11 0 0 0 0 1 0 0 0 0
629	161850 11 0 0 0 0 1 0 0 0 0
630	161861 11 0 0 0 0 1 0 0 0 0
631	161872 11 0 0 0 0 1 0 0 0 0
632	161883 11 0 0 0 0 1 0 0 0 0
633	161894 11 0 0 0 0 1 0 0 0 0
634	161905 11 0 0 0 0 1 0 0 0 0
635	161916 11 0 0 0 0 1 0 0 0 0
636	161927 11 0 0 0 0 1 0 0 0 0
637	161938 11 0 0 0 0 1 0 0 0 0
638	161949 11 0 0 0 0 1 0 0 0 0
639	161960 11 0 0 0 0 1 0 0 0 0
640	161971 11 0 0 0 0 1 0 0 0 0
641	161982 11 0 0 0 0 1 0 0 0 0
642	161993 11 0 0 0 0 1 0 0 0 0
643	162004 11 0 0 0 0 1 0 0 0 0
644	162015 11 0 0 0 0 1 0 0 0 0
645	162026 11 0 0 0 0 1 0 0 0 0
646	162037 11 0 0 0 0 1 0 0 0 0
647	162048 11 0 0 0 0 1 0 0 0 0
648	162059 11 0 0 0 0 1 0 0 0 0
649	162070 11 0 0 0 0 1 0 0 0 0
650	162081 11 0 0 0 0 1 0 0 0 0
651	162092 11 0 0 0 0 1 0 0 0 0
652	162103 11 0 0 0 0 1 0 0 0 0
653	162114 11 0 0 0 0 1 0 0 0 0
654	162125 11 0 0 0 0 1 0 0 0 0
655	162136 11 0 0 0 0 1 0 0 0 0
656	162147 11 0 0 0 0 1 0 0 0 0
657	162158 11 0 0 0 0 1 0 0 0 0
658	162169 11 0 0 0 0 1 0 0 0 0
659	162180 11 0 0 0 0 1 0 0 0 0
660	162191 11 0 0 0 0 1 0 0 0 0
661	162202 11 0 0 0 0 1 0 0 0 0
662	162213 11 0 0 0 0 1 0 0 0 0
663	162224 11 0 0 0 0 1 0 0 0 0
664	162235 11 0 0 0 0 1 0 0 0 0
665	162246 11 0 0 0 0 1 0 0 0 0
666	162257 11 0 0 0 0 1 0 0 0 0
667	162268 11 0 0 0 0 1 0 0 0 0
668	162279 11 0 0 0 0 1 0 0 0 0
669	162290 11 0 0 0 0 1 0 0 0 0
670	162301 11 0 0 0 0 1 0 0 0 0
671	162312 11 0 0 0 0 1 0 0 0 0
672	162323 11 0 0 0 0 1 0 0 0 0
673	162334 11 0 0 0 0 1 0 0 0 0
674	162345 11 0 0 0 0 1 0 0 0 0
675	162356 11 0 0 0 0 1 0 0 0 0
676	162367 11 0 0 0 0 1 0 0 0 0
677	162378 11 0 0 0 0 1 0 0 0 0
678	162389 11 0 0 0 0 1 0 0 0 0
679	162400 11 0 0 0 0 1 0 0 0 0
680	162411 11 0 0 0 0 1 0 0 0 0
681	162422 11 0 0 0 0 1 0 0 0 0
682	162433 11 0 0 0 0 1 0 0 0 0
683	162444 11 0 0 0 0 1 0 0 0 0
684	162455 11 0 0 0 0 1 0 0 0 0
685	162466 11 0 0 0 0 1 0 0 0 0
686	162477 11 0 0 0 0 1 0 0 0 0
687	162488 11 0 0 0 0 1 0 0 0 0
688	162499 11 0 0 0 0 1 0 0 0 0
689	162510 11 0 0 0 0 1 0 0 0 0
690	162521 11 0 0 0 0 1 0 0 0 0
691	162532 11 0 0 0 0 1 0 0 0 0
692	162543 11 0 0 0 0 1 0 0 0 0
693	162554 11 0 0 0 0 1 0 0 0 0
694	162565 11 0 0 0 0 1 0 0 0 0
695	162576 11 0 0 0 0 1 0 0 0 0
696	162587 11 0 0 0 0 1 0 0 0 0
697	162598 11 0 0 0 0 1 0 0 0 0
698	162609 11 0 0 0 0 1 0 0 0 0
699	162620 11 0 0 0 0 1 0 0 0 0
700	162631 11 0 0 0 0 1 0 0 0 0
701	162642 11 0 0 0 0 1 0 0 0 0
702	162653 11 0 0 0 0 1 0 0 0 0
703	162664 11 0 0 0 0 1 0 0 0 0
704	162675 11 0 0 0 0 1 0 0 0 0
705	162686 11 0 0 0 0 1 0 0 0 0
706	162697 11 0 0 0 0 1 0 0 0 0
707	162708 11 0 0 0 0 1 0 0 0 0
708	162719 11 0 0 0 0 1 0 0 0 0
709	162730 11 0 0 0 0 1 0 0 0 0
710	162741 11 0 0 0 0 1 0 0 0 0
711	162752 11 0 0 0 0 1 0 0 0 0
712	162763 11 0 0 0 0 1 0 0 0 0
713	162774 11 0 0 0 0 1 0 0 0 0
714	162785 11 0 0 0 0 1 0 0 0 0
715	162796 11 0 0 0 0 1 0 0 0 0
716	162807 11 0 0 0 0 1 0 0 0 0
717	162818 11 0 0 0 0 1 0 0 0 0
718	162829 11 0 0 0 0 1 0 0 0 0
719	162840 11 0 0 0 0 1 0 0 0 0
720	162851 11 0 0 0 0 1 0 0 0 0
721	162862 11 0 0 0 0 1 0 0 0 0
722	162873 11 0 0 0 0 1 0 0 0 0
723	162884 11 0 0 0 0 1 0 0 0 0
724	162895 11 0 0 0 0 1 0 0 0 0
725	162906 11 0 0 0 0 1 0 0 0 0
726	162917 11 0 0 0 0 1 0 0 0 0
727	162928 11 0 0 0 0 1 0 0 0 0
728	162939 11 0 0 0 0 1 0 0 0 0
729	162950 11 0 0 0 0 1 0 0 0 0
730	162961 11 0 0 0 0 1 0 0 0 0
731	162972 11 0 0 0 0 1 0 0 0 0
732	162983 11 0 0 0 0 1 0 0 0 0
733	162994 11 0 0 0 0 1 0 0 0 0
734	163005 11 0 0 0 0 1 0 0 0 0
735	163016 11 0 0 0 0 1 0 0 0 0
736	163027 11 0 0 0 0 1 0 0 0 0
737	163038 11 0 0 0 0 1 0 0 0 0
738	163049 11 0 0 0 0 1 0 0 0 0
739	163060 11 0 0 0 0 1 0 0 0 0
740	163071 11 0 0 0 0 1 0 0 0 0
741	163082 11 0 0 0 0 1 0 0 0 0
742	163093 11 0 0 0 0 1 0 0 0 0
743	163104 11 0 0 0 0 1 0 0 0 0
744	163115 11 0 0 0 0 1 0 0 0 0
745	163126 11 0 0 0 0 1 0 0 0 0
746	163137 11 0 0 0 0 1 0 0 0 0
747	163148 11 0 0 0 0 1 0 0 0 0
748	163159 11 0 0 0 0 1 0 0 0 0
749	163170 11 0 0 0 0 1 0 0 0 0
750	163181 11 0 0 0 0 1 0 0 0 0
751	163192 11 0 0 0 0 1 0 0 0 0
752	163203 11 0 0 0 0 1 0 0 0 0
753	163214 11 0 0 0 0 1 0 0 0 0
754	163225 11 0 0 0 0 1 0 0 0 0
755	163236 11 0 0 0 0 1 0 0 0 0
756	163247 11 0 0 0 0 1 0 0 0 0
757	163258 11 0 0 0 0 1 0 0 0 0
758	163269 11 0 0 0 0 1 0 0 0 0
759	163280 11 0 0 0 0 1 0 0 0 0
760	163291 11 0 0 0 0 1 0 0 0 0
761	163302 11 0 0 0 0 1 0 0 0 0
762	163313 11 0 0 0 0 1 0 0 0 0
763	163324 11 0 0 0 0 1 0 0 0 0
764	163335 11 0 0 0 0 1 0 0 0 0
765	163346 11 0 0 0 0 1 0 0 0 0
766	163357 11 0 0 0 0 1 0 0 0 0
767	163368 11 0 0 0 0 1 0 0 0 0
768	163379 11 0 0 0 0 1 0 0 0 0
769	163390 11 0 0 0 0 1 0 0 0 0
770	163401 11 0 0 0 0 1 0 0 0 0
771	163412 11 0 0 0 0 1 0 0 0 0
772	163423 11 0 0 0 0 1 0 0 0 0
773	163434 11 0 0 0 0 1 0 0 0 0
774	163445 11 0 0 0 0 1 0 0 0 0
775	163456 11 0 0 0 0 1 0 0 0 0
776	163467 11 0 0 0 0 1 0 0 0 0
777	163478 11 0 0 0 0 1 0 0 0 0
778	163489 11 0 0 0 0 1 0 0 0 0
779	163500 11 0 0 0 0 1 0 0 0 0
780	163511 11 0 0 0 0 1 0 0 0 0
781	163522 11 0 0 0 0 1 0 0 0 0
782	163533 11 0 0 0 0 1 0 0 0 0
783	163544 11 0 0 0 0 1 0 0 0 0
784	163555 11 0 0 0 0 1 0 0 0 0
785	163566 11 0 0 0 0 1 0 0 0 0
786	163577 11 0 0 0 0 1 0 0 0 0
787	163588 11 0 0 0 0 1 0 0 0 0
788	163599 11 0 0 0 0 1 0 0 0 0
789	163610 11 0 0 0 0 1 0 0 0 0
790	163621 11 0 0 0 0 1 0 0 0 0
791	163632 11 0 0 0 0 1 0 0 0 0
792	163643 11 0 0 0 0 1 0 0 0 0
793	163654 11 0 0 0 0 1 0 0 0 0
794	163665 11 0 0 0 0 1 0 0 0 0
795	163676 11 0 0 0 0 1 0 0 0 0
796	163687 11 0 0 0 0 1 0 0 0 0
797	163698 11 0 0 0 0 1 0 0 0 0
798	163709 11 0 0 0 0 1 0 0 0 0
799	163720 11 0 0 0 0 1 0 0 0 0
800	163731 11 0 0 0 0 1 0 0 0 0
801	163742 11 0 0 0 0 1 0 0 0 0
802	163753 11 0 0 0 0 1 0 0 0 0
803	163764 11 0 0 0 0 1 0 0 0 0
804	163775 11 0 0 0 0 1 0 0 0 0
805	163786 11 0 0 0 0 1 0 0 0 0
806	163797 11 0 0 0 0 1 0 0 0 0
807	163808 11 0 0 0 0 1 0 0 0 0
808	163819 11 0 0 0 0 1 0 0 0 0
809	163830 11 0 0 0 0 1 0 0 0 0
810	163841 11 0 0 0 0 1 0 0 0 0
811	163852 11 0 0 0 0 1 0 0 0 0
812	163863 11 0 0 0 0 1 0 0 0 0
813	163874 11 0 0 0 0 1 0 0 0 0
814	163885 11 0 0 0 0 1 0 0 0 0
815	163896 11 0 0 0 0 1 0 0 0 0
816	163907 11 0 0 0 0 1 0 0 0 0
817	163918 11 0 0 0 0 1 0 0 0 0
818	163929 11 0 0 0 0 1 0 0 0 0
819	163940 11 0 0 0 0 1 0 0 0 0
820	163951 11 0 0 0 0 1 0 0 0 0
821	163962 11 0 0 0 0 1 0 0 0 0
822	163973 11 0 0 0 0 1 0 0 0 0
823	163984 11 0 0 0 0 1 0 0 0 0
824	163995 11 0 0 0 0 1 0 0 0 0
825	164006 11 0 0 0 0 1 0 0 0 0
826	164017 11 0 0 0 0 1 0 0 0 0
827	164028 11 0 0 0 0 1 0 0 0 0
828	164039 11 0 0 0 0 1 0 0 0 0
829	164050 11 0 0 0 0 1 0 0 0 0
830	164061 11 0 0 0 0 1 0 0 0 0
831	164072 11 0 0 0 0 1 0 0 0 0
832	164083 11 0 0 0 0 1 0 0 0 0
833	164094 11 0 0 0 0 1 0 0 0 0
834	164105 11 0 0 0 0 1 0 0 0 0
835	164116 11 0 0 0 0 1 0 0 0 0
836	164127 11 0 0 0 0 1 0 0 0 0
837	164138 11 0 0 0 0 1 0 0 0 0
838	164149 11 0 0 0 0 1 0 0 0 0
839	164160 11 0 0 0 0 1 0 0 0 0
840	164171 11 0 0 0 0 1 0 0 0 0
841	164182 11 0 0 0 0 1 0 0 0 0
842	164193 11 0 0 0 0 1 0 0 0 0
843	164204 11 0 0 0 0 1 0 0 0 0
844	164215 11 0 0 0 0 1 0 0 0 0
845	164226 11 0 0 0 0 1 0 0 0 0
846	164237 11 0 0 0 0 1 0 0 0 0
847	164248 11 0 0 0 0 1 0 0 0 0
848	164259 11 0 0 0 0 1 0 0 0 0
849	164270 11 0 0 0 0 1 0 0 0 0
850	164281 11 0 0 0 0 1 0 0 0 0
851	164292 11 0 0 0 0 1 0 0 0 0
852	164303 11 0 0 0 0 1 0 0 0 0
853	164314 11 0 0 0 0 1 0 0 0 0
854	164325 11 0 0 0 0 1 0 0 0 0
855	164336 11 0 0 0 0 1 0 0 0 0
856	164347 11 0 0 0 0 1 0 0 0 0
857	164358 11 0 0 0 0 1 0 0 0 0
858	164369 11 0 0 0 0 1 0 0 0 0
859	164380 11 0 0 0 0 1 0 0 0 0
860	164391 11 0 0 0 0 1 0 0 0 0
861	164402 11 0 0 0 0 1 0 0 0 0
862	164413 11 0 0 0 0 1 0 0 0 0
863	164424 11 0 0 0 0 1 0 0 0 0
864	164435 11 0 0 0 0 1 0 0 0 0
865	164446 11 0 0 0 0 1 0 0 0 0
866	164457 11 0 0 0 0 1 0 0 0 0
867	164468 11 0 0 0 0 1 0 0 0 0
868	164479 11 0 0 0 0 1 0 0 0 0
869	164490 11 0 0 0 0 1 0 0 0 0

