file 184786 1641467236                                          
version 2
run BROADCAST4-0-20220106-12:07:13-2896
attr configname BROADCAST4
attr datetime 20220106-12:07:13
attr experiment BROADCAST4
attr inifile omnetpp.ini
attr iterationvars ""
attr iterationvarsf ""
attr measurement ""
attr network scenario
attr processid 2896
attr repetition 0
attr replication #0
attr resultdir results
attr runnumber 0
attr seedset 0
param **.client0.app[0].broadcast 1.0
param **.client1.app[0].broadcast 1.4
param **.client2.app[0].broadcast 1.8
param **.client3.app[0].join 1.3
param **.client4.app[0].join 1.6
param **.ppp[*].ppp.queue.typename "\"DropTailQueue\""
param **.tcp.typename "\"Tcp\""
param **.tcp.nagleEnabled false
param **.cli*.app[*].nPar 5
param **.cli*.app[*].fPar 0
param **.numApps 1
param **.client0.app[*].typename "\"Node\""
param **.client0.app[0].localPort 1000
param **.client0.app[0].localPortL 1234
param **.client0.app[0].connectAddress "\"\""
param **.client0.app[0].connectPort 1234
param **.client1.app[*].typename "\"Node\""
param **.client1.app[0].localPort 1001
param **.client1.app[0].localPortL 1234
param **.client1.app[0].connectAddress "\"\""
param **.client1.app[0].connectPort 1234
param **.client2.app[*].typename "\"Node\""
param **.client2.app[0].localPort 1002
param **.client2.app[0].localPortL 1234
param **.client2.app[0].connectAddress "\"\""
param **.client2.app[0].connectPort 1234
param **.client3.app[*].typename "\"Node\""
param **.client3.app[0].localPort 1003
param **.client3.app[0].localPortL 1234
param **.client3.app[0].connectAddress "\"\""
param **.client3.app[0].connectPort 1234
param **.client4.app[*].typename "\"Node\""
param **.client4.app[0].localPort 1004
param **.client4.app[0].localPortL 1234
param **.client4.app[0].connectAddress "\"\""
param **.client4.app[0].connectPort 1234
param *.configurator.dumpAddresses true
param *.configurator.dumpTopology true
param *.configurator.dumpLinks true
param *.configurator.dumpRoutes true

vector 0 scenario.client0.ppp[0].ppp transmissionState:vector ETV
attr interpolationmode sample-hold
attr source transmissionStateChanged
attr title "tx state, vector"
vector 1 scenario.client0.ppp[1].ppp transmissionState:vector ETV
attr interpolationmode sample-hold
attr source transmissionStateChanged
attr title "tx state, vector"
vector 2 scenario.client0.ppp[2].ppp transmissionState:vector ETV
attr interpolationmode sample-hold
attr source transmissionStateChanged
attr title "tx state, vector"
vector 3 scenario.client0.ppp[3].ppp transmissionState:vector ETV
attr interpolationmode sample-hold
attr source transmissionStateChanged
attr title "tx state, vector"
vector 4 scenario.client1.ppp[0].ppp transmissionState:vector ETV
attr interpolationmode sample-hold
attr source transmissionStateChanged
attr title "tx state, vector"
vector 5 scenario.client1.ppp[1].ppp transmissionState:vector ETV
attr interpolationmode sample-hold
attr source transmissionStateChanged
attr title "tx state, vector"
vector 6 scenario.client1.ppp[2].ppp transmissionState:vector ETV
attr interpolationmode sample-hold
attr source transmissionStateChanged
attr title "tx state, vector"
vector 7 scenario.client1.ppp[3].ppp transmissionState:vector ETV
attr interpolationmode sample-hold
attr source transmissionStateChanged
attr title "tx state, vector"
vector 8 scenario.client2.ppp[0].ppp transmissionState:vector ETV
attr interpolationmode sample-hold
attr source transmissionStateChanged
attr title "tx state, vector"
vector 9 scenario.client2.ppp[1].ppp transmissionState:vector ETV
attr interpolationmode sample-hold
attr source transmissionStateChanged
attr title "tx state, vector"
vector 10 scenario.client2.ppp[2].ppp transmissionState:vector ETV
attr interpolationmode sample-hold
attr source transmissionStateChanged
attr title "tx state, vector"
vector 11 scenario.client2.ppp[3].ppp transmissionState:vector ETV
attr interpolationmode sample-hold
attr source transmissionStateChanged
attr title "tx state, vector"
vector 12 scenario.client3.ppp[0].ppp transmissionState:vector ETV
attr interpolationmode sample-hold
attr source transmissionStateChanged
attr title "tx state, vector"
vector 13 scenario.client3.ppp[1].ppp transmissionState:vector ETV
attr interpolationmode sample-hold
attr source transmissionStateChanged
attr title "tx state, vector"
vector 14 scenario.client3.ppp[2].ppp transmissionState:vector ETV
attr interpolationmode sample-hold
attr source transmissionStateChanged
attr title "tx state, vector"
vector 15 scenario.client3.ppp[3].ppp transmissionState:vector ETV
attr interpolationmode sample-hold
attr source transmissionStateChanged
attr title "tx state, vector"
vector 16 scenario.client4.ppp[0].ppp transmissionState:vector ETV
attr interpolationmode sample-hold
attr source transmissionStateChanged
attr title "tx state, vector"
vector 17 scenario.client4.ppp[1].ppp transmissionState:vector ETV
attr interpolationmode sample-hold
attr source transmissionStateChanged
attr title "tx state, vector"
vector 18 scenario.client4.ppp[2].ppp transmissionState:vector ETV
attr interpolationmode sample-hold
attr source transmissionStateChanged
attr title "tx state, vector"
vector 19 scenario.client4.ppp[3].ppp transmissionState:vector ETV
attr interpolationmode sample-hold
attr source transmissionStateChanged
attr title "tx state, vector"
vector 20 scenario.client3.tcp.conn-25 tcpRcvQueueBytes:vector ETV
attr interpolationmode sample-hold
vector 21 scenario.client3.tcp.conn-25 rcvAdv:vector ETV
attr interpolationmode sample-hold
vector 22 scenario.client3.tcp.conn-25 rcvWnd:vector ETV
attr interpolationmode sample-hold
vector 23 scenario.client3.tcp.conn-25 sndAck:vector ETV
attr interpolationmode sample-hold
vector 24 scenario.client3.ppp[0].ppp rcvdPkFromHl:vector(packetBytes) ETV
attr interpolationmode none
attr source packetReceivedFromUpper
attr title "packets received from higher layer, vector(packetBytes)"
vector 25 scenario.client3.ppp[0].ppp.queue packetPushed:vector(packetBytes) ETV
attr interpolationmode none
attr title "packet pushed, vector(packetBytes)"
vector 26 scenario.client3.ppp[0].ppp.queue queueLength:vector ETV
attr interpolationmode sample-hold
attr source "count(packetPushed) - count(packetPopped) - count(packetRemoved) - count(packetDropped)"
attr title "queue length, vector"
vector 27 scenario.client3.ppp[0].ppp.queue packetPopped:vector(packetBytes) ETV
attr interpolationmode none
attr title "packet popped, vector(packetBytes)"
vector 28 scenario.client3.ppp[0].ppp.queue queueingTime:vector ETV
attr interpolationmode none
attr source queueingTime(packetPopped)
attr title "queueing times, vector"
attr unit s
vector 29 scenario.client3.ppp[0].ppp txPk:vector(packetBytes) ETV
attr interpolationmode none
attr source packetSentToLower
attr title "packets transmitted, vector(packetBytes)"
vector 30 scenario.client0.ppp[2].ppp rxPkOk:vector(packetBytes) ETV
attr interpolationmode none
attr source rxPkOk
attr title "packets received OK, vector(packetBytes)"
vector 31 scenario.client0.ppp[2].ppp passedUpPk:vector(packetBytes) ETV
attr interpolationmode none
attr source packetSentToUpper
attr title "packets passed to higher layer, vector(packetBytes)"
vector 32 scenario.client0.tcp.conn-0 rcvSeq:vector ETV
attr interpolationmode sample-hold
vector 33 scenario.client0.tcp.conn-0 rcvAck:vector ETV
attr interpolationmode sample-hold
vector 34 scenario.client0.tcp.conn-26 rcvAdv:vector ETV
attr interpolationmode sample-hold
vector 35 scenario.client0.tcp.conn-26 sndWnd:vector ETV
attr interpolationmode sample-hold
vector 36 scenario.client0.tcp.conn-26 tcpRcvQueueBytes:vector ETV
attr interpolationmode sample-hold
vector 37 scenario.client0.tcp.conn-26 rcvWnd:vector ETV
attr interpolationmode sample-hold
vector 38 scenario.client0.tcp.conn-26 sndAck:vector ETV
attr interpolationmode sample-hold
vector 39 scenario.client0.ppp[2].ppp rcvdPkFromHl:vector(packetBytes) ETV
attr interpolationmode none
attr source packetReceivedFromUpper
attr title "packets received from higher layer, vector(packetBytes)"
vector 40 scenario.client0.ppp[2].ppp.queue packetPushed:vector(packetBytes) ETV
attr interpolationmode none
attr title "packet pushed, vector(packetBytes)"
vector 41 scenario.client0.ppp[2].ppp.queue queueLength:vector ETV
attr interpolationmode sample-hold
attr source "count(packetPushed) - count(packetPopped) - count(packetRemoved) - count(packetDropped)"
attr title "queue length, vector"
vector 42 scenario.client0.ppp[2].ppp.queue packetPopped:vector(packetBytes) ETV
attr interpolationmode none
attr title "packet popped, vector(packetBytes)"
vector 43 scenario.client0.ppp[2].ppp.queue queueingTime:vector ETV
attr interpolationmode none
attr source queueingTime(packetPopped)
attr title "queueing times, vector"
attr unit s
vector 44 scenario.client0.ppp[2].ppp txPk:vector(packetBytes) ETV
attr interpolationmode none
attr source packetSentToLower
attr title "packets transmitted, vector(packetBytes)"
vector 45 scenario.client3.ppp[0].ppp rxPkOk:vector(packetBytes) ETV
attr interpolationmode none
attr source rxPkOk
attr title "packets received OK, vector(packetBytes)"
vector 46 scenario.client3.ppp[0].ppp passedUpPk:vector(packetBytes) ETV
attr interpolationmode none
attr source packetSentToUpper
attr title "packets passed to higher layer, vector(packetBytes)"
vector 47 scenario.client3.tcp.conn-25 rcvSeq:vector ETV
attr interpolationmode sample-hold
vector 48 scenario.client3.tcp.conn-25 rcvAck:vector ETV
attr interpolationmode sample-hold
vector 49 scenario.client3.tcp.conn-25 sndWnd:vector ETV
attr interpolationmode sample-hold
vector 50 scenario.client3.tcp.conn-25 unacked:vector ETV
attr interpolationmode sample-hold
vector 51 scenario.client0.tcp.conn-26 rcvSeq:vector ETV
attr interpolationmode sample-hold
vector 52 scenario.client0.tcp.conn-26 rcvAck:vector ETV
attr interpolationmode sample-hold
vector 53 scenario.client0.tcp.conn-26 unacked:vector ETV
attr interpolationmode sample-hold
vector 54 scenario.client0.tcp.conn-26 cwnd:vector ETV
attr interpolationmode sample-hold
vector 55 scenario.client0.tcp.conn-26 ssthresh:vector ETV
attr interpolationmode sample-hold
vector 56 scenario.client0.tcp.conn-26 dupAcks:vector ETV
attr interpolationmode sample-hold
vector 57 scenario.client0.tcp.conn-27 tcpRcvQueueBytes:vector ETV
attr interpolationmode sample-hold
vector 58 scenario.client0.tcp.conn-27 rcvAdv:vector ETV
attr interpolationmode sample-hold
vector 59 scenario.client0.tcp.conn-27 rcvWnd:vector ETV
attr interpolationmode sample-hold
vector 60 scenario.client0.tcp.conn-27 sndAck:vector ETV
attr interpolationmode sample-hold
vector 61 scenario.client0.ppp[1].ppp rcvdPkFromHl:vector(packetBytes) ETV
attr interpolationmode none
attr source packetReceivedFromUpper
attr title "packets received from higher layer, vector(packetBytes)"
vector 62 scenario.client0.ppp[1].ppp.queue packetPushed:vector(packetBytes) ETV
attr interpolationmode none
attr title "packet pushed, vector(packetBytes)"
vector 63 scenario.client0.ppp[1].ppp.queue queueLength:vector ETV
attr interpolationmode sample-hold
attr source "count(packetPushed) - count(packetPopped) - count(packetRemoved) - count(packetDropped)"
attr title "queue length, vector"
vector 64 scenario.client0.ppp[1].ppp.queue packetPopped:vector(packetBytes) ETV
attr interpolationmode none
attr title "packet popped, vector(packetBytes)"
vector 65 scenario.client0.ppp[1].ppp.queue queueingTime:vector ETV
attr interpolationmode none
attr source queueingTime(packetPopped)
attr title "queueing times, vector"
attr unit s
vector 66 scenario.client0.ppp[1].ppp txPk:vector(packetBytes) ETV
attr interpolationmode none
attr source packetSentToLower
attr title "packets transmitted, vector(packetBytes)"
vector 67 scenario.client3.tcp.conn-25 rtt:vector ETV
attr interpolationmode sample-hold
vector 68 scenario.client3.tcp.conn-25 srtt:vector ETV
attr interpolationmode sample-hold
vector 69 scenario.client3.tcp.conn-25 rttvar:vector ETV
attr interpolationmode sample-hold
vector 70 scenario.client3.tcp.conn-25 rto:vector ETV
attr interpolationmode sample-hold
vector 71 scenario.client3.tcp.conn-25 cwnd:vector ETV
attr interpolationmode sample-hold
vector 72 scenario.client3.tcp.conn-25 ssthresh:vector ETV
attr interpolationmode sample-hold
vector 73 scenario.client3.tcp.conn-25 dupAcks:vector ETV
attr interpolationmode sample-hold
vector 74 scenario.client2.ppp[0].ppp rxPkOk:vector(packetBytes) ETV
attr interpolationmode none
attr source rxPkOk
attr title "packets received OK, vector(packetBytes)"
vector 75 scenario.client2.ppp[0].ppp passedUpPk:vector(packetBytes) ETV
attr interpolationmode none
attr source packetSentToUpper
attr title "packets passed to higher layer, vector(packetBytes)"
vector 76 scenario.client2.tcp.conn-2 rcvSeq:vector ETV
attr interpolationmode sample-hold
vector 77 scenario.client2.tcp.conn-2 rcvAck:vector ETV
attr interpolationmode sample-hold
vector 78 scenario.client2.tcp.conn-28 rcvAdv:vector ETV
attr interpolationmode sample-hold
vector 79 scenario.client2.tcp.conn-28 sndWnd:vector ETV
attr interpolationmode sample-hold
vector 80 scenario.client2.tcp.conn-28 tcpRcvQueueBytes:vector ETV
attr interpolationmode sample-hold
vector 81 scenario.client2.tcp.conn-28 rcvWnd:vector ETV
attr interpolationmode sample-hold
vector 82 scenario.client2.tcp.conn-28 sndAck:vector ETV
attr interpolationmode sample-hold
vector 83 scenario.client2.ppp[0].ppp rcvdPkFromHl:vector(packetBytes) ETV
attr interpolationmode none
attr source packetReceivedFromUpper
attr title "packets received from higher layer, vector(packetBytes)"
vector 84 scenario.client2.ppp[0].ppp.queue packetPushed:vector(packetBytes) ETV
attr interpolationmode none
attr title "packet pushed, vector(packetBytes)"
vector 85 scenario.client2.ppp[0].ppp.queue queueLength:vector ETV
attr interpolationmode sample-hold
attr source "count(packetPushed) - count(packetPopped) - count(packetRemoved) - count(packetDropped)"
attr title "queue length, vector"
vector 86 scenario.client2.ppp[0].ppp.queue packetPopped:vector(packetBytes) ETV
attr interpolationmode none
attr title "packet popped, vector(packetBytes)"
vector 87 scenario.client2.ppp[0].ppp.queue queueingTime:vector ETV
attr interpolationmode none
attr source queueingTime(packetPopped)
attr title "queueing times, vector"
attr unit s
vector 88 scenario.client2.ppp[0].ppp txPk:vector(packetBytes) ETV
attr interpolationmode none
attr source packetSentToLower
attr title "packets transmitted, vector(packetBytes)"
vector 89 scenario.client0.ppp[1].ppp rxPkOk:vector(packetBytes) ETV
attr interpolationmode none
attr source rxPkOk
attr title "packets received OK, vector(packetBytes)"
vector 90 scenario.client0.ppp[1].ppp passedUpPk:vector(packetBytes) ETV
attr interpolationmode none
attr source packetSentToUpper
attr title "packets passed to higher layer, vector(packetBytes)"
vector 91 scenario.client0.tcp.conn-27 rcvSeq:vector ETV
attr interpolationmode sample-hold
vector 92 scenario.client0.tcp.conn-27 rcvAck:vector ETV
attr interpolationmode sample-hold
vector 93 scenario.client0.tcp.conn-27 sndWnd:vector ETV
attr interpolationmode sample-hold
vector 94 scenario.client0.tcp.conn-27 unacked:vector ETV
attr interpolationmode sample-hold
vector 95 scenario.client2.tcp.conn-28 rcvSeq:vector ETV
attr interpolationmode sample-hold
vector 96 scenario.client2.tcp.conn-28 rcvAck:vector ETV
attr interpolationmode sample-hold
vector 97 scenario.client2.tcp.conn-28 unacked:vector ETV
attr interpolationmode sample-hold
vector 98 scenario.client2.tcp.conn-28 cwnd:vector ETV
attr interpolationmode sample-hold
vector 99 scenario.client2.tcp.conn-28 ssthresh:vector ETV
attr interpolationmode sample-hold
vector 100 scenario.client2.tcp.conn-28 dupAcks:vector ETV
attr interpolationmode sample-hold
vector 101 scenario.client0.tcp.conn-27 rtt:vector ETV
attr interpolationmode sample-hold
vector 102 scenario.client0.tcp.conn-27 srtt:vector ETV
attr interpolationmode sample-hold
vector 103 scenario.client0.tcp.conn-27 rttvar:vector ETV
attr interpolationmode sample-hold
vector 104 scenario.client0.tcp.conn-27 rto:vector ETV
attr interpolationmode sample-hold
vector 105 scenario.client0.tcp.conn-27 cwnd:vector ETV
attr interpolationmode sample-hold
vector 106 scenario.client0.tcp.conn-27 ssthresh:vector ETV
attr interpolationmode sample-hold
vector 107 scenario.client0.tcp.conn-27 dupAcks:vector ETV
attr interpolationmode sample-hold
vector 108 scenario.client1.tcp.conn-29 tcpRcvQueueBytes:vector ETV
attr interpolationmode sample-hold
vector 109 scenario.client1.tcp.conn-29 rcvAdv:vector ETV
attr interpolationmode sample-hold
vector 110 scenario.client1.tcp.conn-29 rcvWnd:vector ETV
attr interpolationmode sample-hold
vector 111 scenario.client1.tcp.conn-29 sndAck:vector ETV
attr interpolationmode sample-hold
vector 112 scenario.client1.ppp[0].ppp rcvdPkFromHl:vector(packetBytes) ETV
attr interpolationmode none
attr source packetReceivedFromUpper
attr title "packets received from higher layer, vector(packetBytes)"
vector 113 scenario.client1.ppp[0].ppp.queue packetPushed:vector(packetBytes) ETV
attr interpolationmode none
attr title "packet pushed, vector(packetBytes)"
vector 114 scenario.client1.ppp[0].ppp.queue queueLength:vector ETV
attr interpolationmode sample-hold
attr source "count(packetPushed) - count(packetPopped) - count(packetRemoved) - count(packetDropped)"
attr title "queue length, vector"
vector 115 scenario.client1.ppp[0].ppp.queue packetPopped:vector(packetBytes) ETV
attr interpolationmode none
attr title "packet popped, vector(packetBytes)"
vector 116 scenario.client1.ppp[0].ppp.queue queueingTime:vector ETV
attr interpolationmode none
attr source queueingTime(packetPopped)
attr title "queueing times, vector"
attr unit s
vector 117 scenario.client1.ppp[0].ppp txPk:vector(packetBytes) ETV
attr interpolationmode none
attr source packetSentToLower
attr title "packets transmitted, vector(packetBytes)"
vector 118 scenario.client0.ppp[0].ppp rxPkOk:vector(packetBytes) ETV
attr interpolationmode none
attr source rxPkOk
attr title "packets received OK, vector(packetBytes)"
vector 119 scenario.client0.ppp[0].ppp passedUpPk:vector(packetBytes) ETV
attr interpolationmode none
attr source packetSentToUpper
attr title "packets passed to higher layer, vector(packetBytes)"
vector 120 scenario.client0.tcp.conn-30 rcvAdv:vector ETV
attr interpolationmode sample-hold
vector 121 scenario.client0.tcp.conn-30 sndWnd:vector ETV
attr interpolationmode sample-hold
vector 122 scenario.client0.tcp.conn-30 tcpRcvQueueBytes:vector ETV
attr interpolationmode sample-hold
vector 123 scenario.client0.tcp.conn-30 rcvWnd:vector ETV
attr interpolationmode sample-hold
vector 124 scenario.client0.tcp.conn-30 sndAck:vector ETV
attr interpolationmode sample-hold
vector 125 scenario.client0.ppp[0].ppp rcvdPkFromHl:vector(packetBytes) ETV
attr interpolationmode none
attr source packetReceivedFromUpper
attr title "packets received from higher layer, vector(packetBytes)"
vector 126 scenario.client0.ppp[0].ppp.queue packetPushed:vector(packetBytes) ETV
attr interpolationmode none
attr title "packet pushed, vector(packetBytes)"
vector 127 scenario.client0.ppp[0].ppp.queue queueLength:vector ETV
attr interpolationmode sample-hold
attr source "count(packetPushed) - count(packetPopped) - count(packetRemoved) - count(packetDropped)"
attr title "queue length, vector"
vector 128 scenario.client0.ppp[0].ppp.queue packetPopped:vector(packetBytes) ETV
attr interpolationmode none
attr title "packet popped, vector(packetBytes)"
vector 129 scenario.client0.ppp[0].ppp.queue queueingTime:vector ETV
attr interpolationmode none
attr source queueingTime(packetPopped)
attr title "queueing times, vector"
attr unit s
vector 130 scenario.client0.ppp[0].ppp txPk:vector(packetBytes) ETV
attr interpolationmode none
attr source packetSentToLower
attr title "packets transmitted, vector(packetBytes)"
vector 131 scenario.client1.ppp[0].ppp rxPkOk:vector(packetBytes) ETV
attr interpolationmode none
attr source rxPkOk
attr title "packets received OK, vector(packetBytes)"
vector 132 scenario.client1.ppp[0].ppp passedUpPk:vector(packetBytes) ETV
attr interpolationmode none
attr source packetSentToUpper
attr title "packets passed to higher layer, vector(packetBytes)"
vector 133 scenario.client1.tcp.conn-29 rcvSeq:vector ETV
attr interpolationmode sample-hold
vector 134 scenario.client1.tcp.conn-29 rcvAck:vector ETV
attr interpolationmode sample-hold
vector 135 scenario.client1.tcp.conn-29 sndWnd:vector ETV
attr interpolationmode sample-hold
vector 136 scenario.client1.tcp.conn-29 unacked:vector ETV
attr interpolationmode sample-hold
vector 137 scenario.client0.tcp.conn-30 rcvSeq:vector ETV
attr interpolationmode sample-hold
vector 138 scenario.client0.tcp.conn-30 rcvAck:vector ETV
attr interpolationmode sample-hold
vector 139 scenario.client0.tcp.conn-30 unacked:vector ETV
attr interpolationmode sample-hold
vector 140 scenario.client0.tcp.conn-30 cwnd:vector ETV
attr interpolationmode sample-hold
vector 141 scenario.client0.tcp.conn-30 ssthresh:vector ETV
attr interpolationmode sample-hold
vector 142 scenario.client0.tcp.conn-30 dupAcks:vector ETV
attr interpolationmode sample-hold
vector 143 scenario.client1.tcp.conn-29 rtt:vector ETV
attr interpolationmode sample-hold
vector 144 scenario.client1.tcp.conn-29 srtt:vector ETV
attr interpolationmode sample-hold
vector 145 scenario.client1.tcp.conn-29 rttvar:vector ETV
attr interpolationmode sample-hold
vector 146 scenario.client1.tcp.conn-29 rto:vector ETV
attr interpolationmode sample-hold
vector 147 scenario.client1.tcp.conn-29 cwnd:vector ETV
attr interpolationmode sample-hold
vector 148 scenario.client1.tcp.conn-29 ssthresh:vector ETV
attr interpolationmode sample-hold
vector 149 scenario.client1.tcp.conn-29 dupAcks:vector ETV
attr interpolationmode sample-hold
vector 150 scenario.client3.tcp.conn-31 tcpRcvQueueBytes:vector ETV
attr interpolationmode sample-hold
vector 151 scenario.client3.tcp.conn-31 rcvAdv:vector ETV
attr interpolationmode sample-hold
vector 152 scenario.client3.tcp.conn-31 rcvWnd:vector ETV
attr interpolationmode sample-hold
vector 153 scenario.client3.tcp.conn-31 sndAck:vector ETV
attr interpolationmode sample-hold
vector 154 scenario.client3.ppp[1].ppp rcvdPkFromHl:vector(packetBytes) ETV
attr interpolationmode none
attr source packetReceivedFromUpper
attr title "packets received from higher layer, vector(packetBytes)"
vector 155 scenario.client3.ppp[1].ppp.queue packetPushed:vector(packetBytes) ETV
attr interpolationmode none
attr title "packet pushed, vector(packetBytes)"
vector 156 scenario.client3.ppp[1].ppp.queue queueLength:vector ETV
attr interpolationmode sample-hold
attr source "count(packetPushed) - count(packetPopped) - count(packetRemoved) - count(packetDropped)"
attr title "queue length, vector"
vector 157 scenario.client3.ppp[1].ppp.queue packetPopped:vector(packetBytes) ETV
attr interpolationmode none
attr title "packet popped, vector(packetBytes)"
vector 158 scenario.client3.ppp[1].ppp.queue queueingTime:vector ETV
attr interpolationmode none
attr source queueingTime(packetPopped)
attr title "queueing times, vector"
attr unit s
vector 159 scenario.client3.ppp[1].ppp txPk:vector(packetBytes) ETV
attr interpolationmode none
attr source packetSentToLower
attr title "packets transmitted, vector(packetBytes)"
vector 160 scenario.client1.ppp[2].ppp rxPkOk:vector(packetBytes) ETV
attr interpolationmode none
attr source rxPkOk
attr title "packets received OK, vector(packetBytes)"
vector 161 scenario.client1.ppp[2].ppp passedUpPk:vector(packetBytes) ETV
attr interpolationmode none
attr source packetSentToUpper
attr title "packets passed to higher layer, vector(packetBytes)"
vector 162 scenario.client1.tcp.conn-1 rcvSeq:vector ETV
attr interpolationmode sample-hold
vector 163 scenario.client1.tcp.conn-1 rcvAck:vector ETV
attr interpolationmode sample-hold
vector 164 scenario.client1.tcp.conn-32 rcvAdv:vector ETV
attr interpolationmode sample-hold
vector 165 scenario.client1.tcp.conn-32 sndWnd:vector ETV
attr interpolationmode sample-hold
vector 166 scenario.client1.tcp.conn-32 tcpRcvQueueBytes:vector ETV
attr interpolationmode sample-hold
vector 167 scenario.client1.tcp.conn-32 rcvWnd:vector ETV
attr interpolationmode sample-hold
vector 168 scenario.client1.tcp.conn-32 sndAck:vector ETV
attr interpolationmode sample-hold
vector 169 scenario.client1.ppp[2].ppp rcvdPkFromHl:vector(packetBytes) ETV
attr interpolationmode none
attr source packetReceivedFromUpper
attr title "packets received from higher layer, vector(packetBytes)"
vector 170 scenario.client1.ppp[2].ppp.queue packetPushed:vector(packetBytes) ETV
attr interpolationmode none
attr title "packet pushed, vector(packetBytes)"
vector 171 scenario.client1.ppp[2].ppp.queue queueLength:vector ETV
attr interpolationmode sample-hold
attr source "count(packetPushed) - count(packetPopped) - count(packetRemoved) - count(packetDropped)"
attr title "queue length, vector"
vector 172 scenario.client1.ppp[2].ppp.queue packetPopped:vector(packetBytes) ETV
attr interpolationmode none
attr title "packet popped, vector(packetBytes)"
vector 173 scenario.client1.ppp[2].ppp.queue queueingTime:vector ETV
attr interpolationmode none
attr source queueingTime(packetPopped)
attr title "queueing times, vector"
attr unit s
vector 174 scenario.client1.ppp[2].ppp txPk:vector(packetBytes) ETV
attr interpolationmode none
attr source packetSentToLower
attr title "packets transmitted, vector(packetBytes)"
vector 175 scenario.client3.ppp[1].ppp rxPkOk:vector(packetBytes) ETV
attr interpolationmode none
attr source rxPkOk
attr title "packets received OK, vector(packetBytes)"
vector 176 scenario.client3.ppp[1].ppp passedUpPk:vector(packetBytes) ETV
attr interpolationmode none
attr source packetSentToUpper
attr title "packets passed to higher layer, vector(packetBytes)"
vector 177 scenario.client3.tcp.conn-31 rcvSeq:vector ETV
attr interpolationmode sample-hold
vector 178 scenario.client3.tcp.conn-31 rcvAck:vector ETV
attr interpolationmode sample-hold
vector 179 scenario.client3.tcp.conn-31 sndWnd:vector ETV
attr interpolationmode sample-hold
vector 180 scenario.client3.tcp.conn-31 unacked:vector ETV
attr interpolationmode sample-hold
vector 181 scenario.client1.tcp.conn-32 rcvSeq:vector ETV
attr interpolationmode sample-hold
vector 182 scenario.client1.tcp.conn-32 rcvAck:vector ETV
attr interpolationmode sample-hold
vector 183 scenario.client1.tcp.conn-32 unacked:vector ETV
attr interpolationmode sample-hold
vector 184 scenario.client1.tcp.conn-32 cwnd:vector ETV
attr interpolationmode sample-hold
vector 185 scenario.client1.tcp.conn-32 ssthresh:vector ETV
attr interpolationmode sample-hold
vector 186 scenario.client1.tcp.conn-32 dupAcks:vector ETV
attr interpolationmode sample-hold
vector 187 scenario.client3.tcp.conn-31 rtt:vector ETV
attr interpolationmode sample-hold
vector 188 scenario.client3.tcp.conn-31 srtt:vector ETV
attr interpolationmode sample-hold
vector 189 scenario.client3.tcp.conn-31 rttvar:vector ETV
attr interpolationmode sample-hold
vector 190 scenario.client3.tcp.conn-31 rto:vector ETV
attr interpolationmode sample-hold
vector 191 scenario.client3.tcp.conn-31 cwnd:vector ETV
attr interpolationmode sample-hold
vector 192 scenario.client3.tcp.conn-31 ssthresh:vector ETV
attr interpolationmode sample-hold
vector 193 scenario.client3.tcp.conn-31 dupAcks:vector ETV
attr interpolationmode sample-hold
vector 194 scenario.client1.tcp.conn-33 tcpRcvQueueBytes:vector ETV
attr interpolationmode sample-hold
vector 195 scenario.client1.tcp.conn-33 rcvAdv:vector ETV
attr interpolationmode sample-hold
vector 196 scenario.client1.tcp.conn-33 rcvWnd:vector ETV
attr interpolationmode sample-hold
vector 197 scenario.client1.tcp.conn-33 sndAck:vector ETV
attr interpolationmode sample-hold
vector 198 scenario.client1.ppp[1].ppp rcvdPkFromHl:vector(packetBytes) ETV
attr interpolationmode none
attr source packetReceivedFromUpper
attr title "packets received from higher layer, vector(packetBytes)"
vector 199 scenario.client1.ppp[1].ppp.queue packetPushed:vector(packetBytes) ETV
attr interpolationmode none
attr title "packet pushed, vector(packetBytes)"
vector 200 scenario.client1.ppp[1].ppp.queue queueLength:vector ETV
attr interpolationmode sample-hold
attr source "count(packetPushed) - count(packetPopped) - count(packetRemoved) - count(packetDropped)"
attr title "queue length, vector"
vector 201 scenario.client1.ppp[1].ppp.queue packetPopped:vector(packetBytes) ETV
attr interpolationmode none
attr title "packet popped, vector(packetBytes)"
vector 202 scenario.client1.ppp[1].ppp.queue queueingTime:vector ETV
attr interpolationmode none
attr source queueingTime(packetPopped)
attr title "queueing times, vector"
attr unit s
vector 203 scenario.client1.ppp[1].ppp txPk:vector(packetBytes) ETV
attr interpolationmode none
attr source packetSentToLower
attr title "packets transmitted, vector(packetBytes)"
vector 204 scenario.client2.ppp[1].ppp rxPkOk:vector(packetBytes) ETV
attr interpolationmode none
attr source rxPkOk
attr title "packets received OK, vector(packetBytes)"
vector 205 scenario.client2.ppp[1].ppp passedUpPk:vector(packetBytes) ETV
attr interpolationmode none
attr source packetSentToUpper
attr title "packets passed to higher layer, vector(packetBytes)"
vector 206 scenario.client2.tcp.conn-34 rcvAdv:vector ETV
attr interpolationmode sample-hold
vector 207 scenario.client2.tcp.conn-34 sndWnd:vector ETV
attr interpolationmode sample-hold
vector 208 scenario.client2.tcp.conn-34 tcpRcvQueueBytes:vector ETV
attr interpolationmode sample-hold
vector 209 scenario.client2.tcp.conn-34 rcvWnd:vector ETV
attr interpolationmode sample-hold
vector 210 scenario.client2.tcp.conn-34 sndAck:vector ETV
attr interpolationmode sample-hold
vector 211 scenario.client2.ppp[1].ppp rcvdPkFromHl:vector(packetBytes) ETV
attr interpolationmode none
attr source packetReceivedFromUpper
attr title "packets received from higher layer, vector(packetBytes)"
vector 212 scenario.client2.ppp[1].ppp.queue packetPushed:vector(packetBytes) ETV
attr interpolationmode none
attr title "packet pushed, vector(packetBytes)"
vector 213 scenario.client2.ppp[1].ppp.queue queueLength:vector ETV
attr interpolationmode sample-hold
attr source "count(packetPushed) - count(packetPopped) - count(packetRemoved) - count(packetDropped)"
attr title "queue length, vector"
vector 214 scenario.client2.ppp[1].ppp.queue packetPopped:vector(packetBytes) ETV
attr interpolationmode none
attr title "packet popped, vector(packetBytes)"
vector 215 scenario.client2.ppp[1].ppp.queue queueingTime:vector ETV
attr interpolationmode none
attr source queueingTime(packetPopped)
attr title "queueing times, vector"
attr unit s
vector 216 scenario.client2.ppp[1].ppp txPk:vector(packetBytes) ETV
attr interpolationmode none
attr source packetSentToLower
attr title "packets transmitted, vector(packetBytes)"
vector 217 scenario.client1.ppp[1].ppp rxPkOk:vector(packetBytes) ETV
attr interpolationmode none
attr source rxPkOk
attr title "packets received OK, vector(packetBytes)"
vector 218 scenario.client1.ppp[1].ppp passedUpPk:vector(packetBytes) ETV
attr interpolationmode none
attr source packetSentToUpper
attr title "packets passed to higher layer, vector(packetBytes)"
vector 219 scenario.client1.tcp.conn-33 rcvSeq:vector ETV
attr interpolationmode sample-hold
vector 220 scenario.client1.tcp.conn-33 rcvAck:vector ETV
attr interpolationmode sample-hold
vector 221 scenario.client1.tcp.conn-33 sndWnd:vector ETV
attr interpolationmode sample-hold
vector 222 scenario.client1.tcp.conn-33 unacked:vector ETV
attr interpolationmode sample-hold
vector 223 scenario.client2.tcp.conn-34 rcvSeq:vector ETV
attr interpolationmode sample-hold
vector 224 scenario.client2.tcp.conn-34 rcvAck:vector ETV
attr interpolationmode sample-hold
vector 225 scenario.client2.tcp.conn-34 unacked:vector ETV
attr interpolationmode sample-hold
vector 226 scenario.client2.tcp.conn-34 cwnd:vector ETV
attr interpolationmode sample-hold
vector 227 scenario.client2.tcp.conn-34 ssthresh:vector ETV
attr interpolationmode sample-hold
vector 228 scenario.client2.tcp.conn-34 dupAcks:vector ETV
attr interpolationmode sample-hold
vector 229 scenario.client1.tcp.conn-33 rtt:vector ETV
attr interpolationmode sample-hold
vector 230 scenario.client1.tcp.conn-33 srtt:vector ETV
attr interpolationmode sample-hold
vector 231 scenario.client1.tcp.conn-33 rttvar:vector ETV
attr interpolationmode sample-hold
vector 232 scenario.client1.tcp.conn-33 rto:vector ETV
attr interpolationmode sample-hold
vector 233 scenario.client1.tcp.conn-33 cwnd:vector ETV
attr interpolationmode sample-hold
vector 234 scenario.client1.tcp.conn-33 ssthresh:vector ETV
attr interpolationmode sample-hold
vector 235 scenario.client1.tcp.conn-33 dupAcks:vector ETV
attr interpolationmode sample-hold
vector 236 scenario.client0.tcp.conn-35 tcpRcvQueueBytes:vector ETV
attr interpolationmode sample-hold
vector 237 scenario.client0.tcp.conn-35 rcvAdv:vector ETV
attr interpolationmode sample-hold
vector 238 scenario.client0.tcp.conn-35 rcvWnd:vector ETV
attr interpolationmode sample-hold
vector 239 scenario.client0.tcp.conn-35 sndAck:vector ETV
attr interpolationmode sample-hold
vector 240 scenario.client3.tcp.conn-3 rcvSeq:vector ETV
attr interpolationmode sample-hold
vector 241 scenario.client3.tcp.conn-3 rcvAck:vector ETV
attr interpolationmode sample-hold
vector 242 scenario.client3.tcp.conn-36 rcvAdv:vector ETV
attr interpolationmode sample-hold
vector 243 scenario.client3.tcp.conn-36 sndWnd:vector ETV
attr interpolationmode sample-hold
vector 244 scenario.client3.tcp.conn-36 tcpRcvQueueBytes:vector ETV
attr interpolationmode sample-hold
vector 245 scenario.client3.tcp.conn-36 rcvWnd:vector ETV
attr interpolationmode sample-hold
vector 246 scenario.client3.tcp.conn-36 sndAck:vector ETV
attr interpolationmode sample-hold
vector 247 scenario.client0.tcp.conn-35 rcvSeq:vector ETV
attr interpolationmode sample-hold
vector 248 scenario.client0.tcp.conn-35 rcvAck:vector ETV
attr interpolationmode sample-hold
vector 249 scenario.client0.tcp.conn-35 sndWnd:vector ETV
attr interpolationmode sample-hold
vector 250 scenario.client0.tcp.conn-35 unacked:vector ETV
attr interpolationmode sample-hold
vector 251 scenario.client3.tcp.conn-36 rcvSeq:vector ETV
attr interpolationmode sample-hold
vector 252 scenario.client3.tcp.conn-36 rcvAck:vector ETV
attr interpolationmode sample-hold
vector 253 scenario.client3.tcp.conn-36 unacked:vector ETV
attr interpolationmode sample-hold
vector 254 scenario.client3.tcp.conn-36 cwnd:vector ETV
attr interpolationmode sample-hold
vector 255 scenario.client3.tcp.conn-36 ssthresh:vector ETV
attr interpolationmode sample-hold
vector 256 scenario.client3.tcp.conn-36 dupAcks:vector ETV
attr interpolationmode sample-hold
vector 257 scenario.client0.tcp.conn-35 rtt:vector ETV
attr interpolationmode sample-hold
vector 258 scenario.client0.tcp.conn-35 srtt:vector ETV
attr interpolationmode sample-hold
vector 259 scenario.client0.tcp.conn-35 rttvar:vector ETV
attr interpolationmode sample-hold
vector 260 scenario.client0.tcp.conn-35 rto:vector ETV
attr interpolationmode sample-hold
vector 261 scenario.client0.tcp.conn-35 cwnd:vector ETV
attr interpolationmode sample-hold
vector 262 scenario.client0.tcp.conn-35 ssthresh:vector ETV
attr interpolationmode sample-hold
vector 263 scenario.client0.tcp.conn-35 dupAcks:vector ETV
attr interpolationmode sample-hold
vector 264 scenario.client2.tcp.conn-37 tcpRcvQueueBytes:vector ETV
attr interpolationmode sample-hold
vector 265 scenario.client2.tcp.conn-37 rcvAdv:vector ETV
attr interpolationmode sample-hold
vector 266 scenario.client2.tcp.conn-37 rcvWnd:vector ETV
attr interpolationmode sample-hold
vector 267 scenario.client2.tcp.conn-37 sndAck:vector ETV
attr interpolationmode sample-hold
vector 268 scenario.client1.tcp.conn-38 rcvAdv:vector ETV
attr interpolationmode sample-hold
vector 269 scenario.client1.tcp.conn-38 sndWnd:vector ETV
attr interpolationmode sample-hold
vector 270 scenario.client1.tcp.conn-38 tcpRcvQueueBytes:vector ETV
attr interpolationmode sample-hold
vector 271 scenario.client1.tcp.conn-38 rcvWnd:vector ETV
attr interpolationmode sample-hold
vector 272 scenario.client1.tcp.conn-38 sndAck:vector ETV
attr interpolationmode sample-hold
vector 273 scenario.client2.tcp.conn-37 rcvSeq:vector ETV
attr interpolationmode sample-hold
vector 274 scenario.client2.tcp.conn-37 rcvAck:vector ETV
attr interpolationmode sample-hold
vector 275 scenario.client2.tcp.conn-37 sndWnd:vector ETV
attr interpolationmode sample-hold
vector 276 scenario.client2.tcp.conn-37 unacked:vector ETV
attr interpolationmode sample-hold
vector 277 scenario.client1.tcp.conn-38 rcvSeq:vector ETV
attr interpolationmode sample-hold
vector 278 scenario.client1.tcp.conn-38 rcvAck:vector ETV
attr interpolationmode sample-hold
vector 279 scenario.client1.tcp.conn-38 unacked:vector ETV
attr interpolationmode sample-hold
vector 280 scenario.client1.tcp.conn-38 cwnd:vector ETV
attr interpolationmode sample-hold
vector 281 scenario.client1.tcp.conn-38 ssthresh:vector ETV
attr interpolationmode sample-hold
vector 282 scenario.client1.tcp.conn-38 dupAcks:vector ETV
attr interpolationmode sample-hold
vector 283 scenario.client2.tcp.conn-37 rtt:vector ETV
attr interpolationmode sample-hold
vector 284 scenario.client2.tcp.conn-37 srtt:vector ETV
attr interpolationmode sample-hold
vector 285 scenario.client2.tcp.conn-37 rttvar:vector ETV
attr interpolationmode sample-hold
vector 286 scenario.client2.tcp.conn-37 rto:vector ETV
attr interpolationmode sample-hold
vector 287 scenario.client2.tcp.conn-37 cwnd:vector ETV
attr interpolationmode sample-hold
vector 288 scenario.client2.tcp.conn-37 ssthresh:vector ETV
attr interpolationmode sample-hold
vector 289 scenario.client2.tcp.conn-37 dupAcks:vector ETV
attr interpolationmode sample-hold
vector 290 scenario.client0.tcp.conn-39 tcpRcvQueueBytes:vector ETV
attr interpolationmode sample-hold
vector 291 scenario.client0.tcp.conn-39 rcvAdv:vector ETV
attr interpolationmode sample-hold
vector 292 scenario.client0.tcp.conn-39 rcvWnd:vector ETV
attr interpolationmode sample-hold
vector 293 scenario.client0.tcp.conn-39 sndAck:vector ETV
attr interpolationmode sample-hold
vector 294 scenario.client1.tcp.conn-40 rcvAdv:vector ETV
attr interpolationmode sample-hold
vector 295 scenario.client1.tcp.conn-40 sndWnd:vector ETV
attr interpolationmode sample-hold
vector 296 scenario.client1.tcp.conn-40 tcpRcvQueueBytes:vector ETV
attr interpolationmode sample-hold
vector 297 scenario.client1.tcp.conn-40 rcvWnd:vector ETV
attr interpolationmode sample-hold
vector 298 scenario.client1.tcp.conn-40 sndAck:vector ETV
attr interpolationmode sample-hold
vector 299 scenario.client0.tcp.conn-39 rcvSeq:vector ETV
attr interpolationmode sample-hold
vector 300 scenario.client0.tcp.conn-39 rcvAck:vector ETV
attr interpolationmode sample-hold
vector 301 scenario.client0.tcp.conn-39 sndWnd:vector ETV
attr interpolationmode sample-hold
vector 302 scenario.client0.tcp.conn-39 unacked:vector ETV
attr interpolationmode sample-hold
vector 303 scenario.client1.tcp.conn-40 rcvSeq:vector ETV
attr interpolationmode sample-hold
vector 304 scenario.client1.tcp.conn-40 rcvAck:vector ETV
attr interpolationmode sample-hold
vector 305 scenario.client1.tcp.conn-40 unacked:vector ETV
attr interpolationmode sample-hold
vector 306 scenario.client1.tcp.conn-40 cwnd:vector ETV
attr interpolationmode sample-hold
vector 307 scenario.client1.tcp.conn-40 ssthresh:vector ETV
attr interpolationmode sample-hold
vector 308 scenario.client1.tcp.conn-40 dupAcks:vector ETV
attr interpolationmode sample-hold
vector 309 scenario.client0.tcp.conn-39 rtt:vector ETV
attr interpolationmode sample-hold
vector 310 scenario.client0.tcp.conn-39 srtt:vector ETV
attr interpolationmode sample-hold
vector 311 scenario.client0.tcp.conn-39 rttvar:vector ETV
attr interpolationmode sample-hold
vector 312 scenario.client0.tcp.conn-39 rto:vector ETV
attr interpolationmode sample-hold
vector 313 scenario.client0.tcp.conn-39 cwnd:vector ETV
attr interpolationmode sample-hold
vector 314 scenario.client0.tcp.conn-39 ssthresh:vector ETV
attr interpolationmode sample-hold
vector 315 scenario.client0.tcp.conn-39 dupAcks:vector ETV
attr interpolationmode sample-hold
vector 316 scenario.client3.tcp.conn-41 tcpRcvQueueBytes:vector ETV
attr interpolationmode sample-hold
vector 317 scenario.client3.tcp.conn-41 rcvAdv:vector ETV
attr interpolationmode sample-hold
vector 318 scenario.client3.tcp.conn-41 rcvWnd:vector ETV
attr interpolationmode sample-hold
vector 319 scenario.client3.tcp.conn-41 sndAck:vector ETV
attr interpolationmode sample-hold
vector 320 scenario.client3.ppp[2].ppp rcvdPkFromHl:vector(packetBytes) ETV
attr interpolationmode none
attr source packetReceivedFromUpper
attr title "packets received from higher layer, vector(packetBytes)"
vector 321 scenario.client3.ppp[2].ppp.queue packetPushed:vector(packetBytes) ETV
attr interpolationmode none
attr title "packet pushed, vector(packetBytes)"
vector 322 scenario.client3.ppp[2].ppp.queue queueLength:vector ETV
attr interpolationmode sample-hold
attr source "count(packetPushed) - count(packetPopped) - count(packetRemoved) - count(packetDropped)"
attr title "queue length, vector"
vector 323 scenario.client3.ppp[2].ppp.queue packetPopped:vector(packetBytes) ETV
attr interpolationmode none
attr title "packet popped, vector(packetBytes)"
vector 324 scenario.client3.ppp[2].ppp.queue queueingTime:vector ETV
attr interpolationmode none
attr source queueingTime(packetPopped)
attr title "queueing times, vector"
attr unit s
vector 325 scenario.client3.ppp[2].ppp txPk:vector(packetBytes) ETV
attr interpolationmode none
attr source packetSentToLower
attr title "packets transmitted, vector(packetBytes)"
vector 326 scenario.client2.ppp[2].ppp rxPkOk:vector(packetBytes) ETV
attr interpolationmode none
attr source rxPkOk
attr title "packets received OK, vector(packetBytes)"
vector 327 scenario.client2.ppp[2].ppp passedUpPk:vector(packetBytes) ETV
attr interpolationmode none
attr source packetSentToUpper
attr title "packets passed to higher layer, vector(packetBytes)"
vector 328 scenario.client2.tcp.conn-42 rcvAdv:vector ETV
attr interpolationmode sample-hold
vector 329 scenario.client2.tcp.conn-42 sndWnd:vector ETV
attr interpolationmode sample-hold
vector 330 scenario.client2.tcp.conn-42 tcpRcvQueueBytes:vector ETV
attr interpolationmode sample-hold
vector 331 scenario.client2.tcp.conn-42 rcvWnd:vector ETV
attr interpolationmode sample-hold
vector 332 scenario.client2.tcp.conn-42 sndAck:vector ETV
attr interpolationmode sample-hold
vector 333 scenario.client2.ppp[2].ppp rcvdPkFromHl:vector(packetBytes) ETV
attr interpolationmode none
attr source packetReceivedFromUpper
attr title "packets received from higher layer, vector(packetBytes)"
vector 334 scenario.client2.ppp[2].ppp.queue packetPushed:vector(packetBytes) ETV
attr interpolationmode none
attr title "packet pushed, vector(packetBytes)"
vector 335 scenario.client2.ppp[2].ppp.queue queueLength:vector ETV
attr interpolationmode sample-hold
attr source "count(packetPushed) - count(packetPopped) - count(packetRemoved) - count(packetDropped)"
attr title "queue length, vector"
vector 336 scenario.client2.ppp[2].ppp.queue packetPopped:vector(packetBytes) ETV
attr interpolationmode none
attr title "packet popped, vector(packetBytes)"
vector 337 scenario.client2.ppp[2].ppp.queue queueingTime:vector ETV
attr interpolationmode none
attr source queueingTime(packetPopped)
attr title "queueing times, vector"
attr unit s
vector 338 scenario.client2.ppp[2].ppp txPk:vector(packetBytes) ETV
attr interpolationmode none
attr source packetSentToLower
attr title "packets transmitted, vector(packetBytes)"
vector 339 scenario.client3.ppp[2].ppp rxPkOk:vector(packetBytes) ETV
attr interpolationmode none
attr source rxPkOk
attr title "packets received OK, vector(packetBytes)"
vector 340 scenario.client3.ppp[2].ppp passedUpPk:vector(packetBytes) ETV
attr interpolationmode none
attr source packetSentToUpper
attr title "packets passed to higher layer, vector(packetBytes)"
vector 341 scenario.client3.tcp.conn-41 rcvSeq:vector ETV
attr interpolationmode sample-hold
vector 342 scenario.client3.tcp.conn-41 rcvAck:vector ETV
attr interpolationmode sample-hold
vector 343 scenario.client3.tcp.conn-41 sndWnd:vector ETV
attr interpolationmode sample-hold
vector 344 scenario.client3.tcp.conn-41 unacked:vector ETV
attr interpolationmode sample-hold
vector 345 scenario.client2.tcp.conn-42 rcvSeq:vector ETV
attr interpolationmode sample-hold
vector 346 scenario.client2.tcp.conn-42 rcvAck:vector ETV
attr interpolationmode sample-hold
vector 347 scenario.client2.tcp.conn-42 unacked:vector ETV
attr interpolationmode sample-hold
vector 348 scenario.client2.tcp.conn-42 cwnd:vector ETV
attr interpolationmode sample-hold
vector 349 scenario.client2.tcp.conn-42 ssthresh:vector ETV
attr interpolationmode sample-hold
vector 350 scenario.client2.tcp.conn-42 dupAcks:vector ETV
attr interpolationmode sample-hold
vector 351 scenario.client3.tcp.conn-41 rtt:vector ETV
attr interpolationmode sample-hold
vector 352 scenario.client3.tcp.conn-41 srtt:vector ETV
attr interpolationmode sample-hold
vector 353 scenario.client3.tcp.conn-41 rttvar:vector ETV
attr interpolationmode sample-hold
vector 354 scenario.client3.tcp.conn-41 rto:vector ETV
attr interpolationmode sample-hold
vector 355 scenario.client3.tcp.conn-41 cwnd:vector ETV
attr interpolationmode sample-hold
vector 356 scenario.client3.tcp.conn-41 ssthresh:vector ETV
attr interpolationmode sample-hold
vector 357 scenario.client3.tcp.conn-41 dupAcks:vector ETV
attr interpolationmode sample-hold
vector 358 scenario.client1.tcp.conn-43 tcpRcvQueueBytes:vector ETV
attr interpolationmode sample-hold
vector 359 scenario.client1.tcp.conn-43 rcvAdv:vector ETV
attr interpolationmode sample-hold
vector 360 scenario.client1.tcp.conn-43 rcvWnd:vector ETV
attr interpolationmode sample-hold
vector 361 scenario.client1.tcp.conn-43 sndAck:vector ETV
attr interpolationmode sample-hold
vector 362 scenario.client3.tcp.conn-44 rcvAdv:vector ETV
attr interpolationmode sample-hold
vector 363 scenario.client3.tcp.conn-44 sndWnd:vector ETV
attr interpolationmode sample-hold
vector 364 scenario.client3.tcp.conn-44 tcpRcvQueueBytes:vector ETV
attr interpolationmode sample-hold
vector 365 scenario.client3.tcp.conn-44 rcvWnd:vector ETV
attr interpolationmode sample-hold
vector 366 scenario.client3.tcp.conn-44 sndAck:vector ETV
attr interpolationmode sample-hold
vector 367 scenario.client1.tcp.conn-43 rcvSeq:vector ETV
attr interpolationmode sample-hold
vector 368 scenario.client1.tcp.conn-43 rcvAck:vector ETV
attr interpolationmode sample-hold
vector 369 scenario.client1.tcp.conn-43 sndWnd:vector ETV
attr interpolationmode sample-hold
vector 370 scenario.client1.tcp.conn-43 unacked:vector ETV
attr interpolationmode sample-hold
vector 371 scenario.client3.tcp.conn-44 rcvSeq:vector ETV
attr interpolationmode sample-hold
vector 372 scenario.client3.tcp.conn-44 rcvAck:vector ETV
attr interpolationmode sample-hold
vector 373 scenario.client3.tcp.conn-44 unacked:vector ETV
attr interpolationmode sample-hold
vector 374 scenario.client3.tcp.conn-44 cwnd:vector ETV
attr interpolationmode sample-hold
vector 375 scenario.client3.tcp.conn-44 ssthresh:vector ETV
attr interpolationmode sample-hold
vector 376 scenario.client3.tcp.conn-44 dupAcks:vector ETV
attr interpolationmode sample-hold
vector 377 scenario.client1.tcp.conn-43 rtt:vector ETV
attr interpolationmode sample-hold
vector 378 scenario.client1.tcp.conn-43 srtt:vector ETV
attr interpolationmode sample-hold
vector 379 scenario.client1.tcp.conn-43 rttvar:vector ETV
attr interpolationmode sample-hold
vector 380 scenario.client1.tcp.conn-43 rto:vector ETV
attr interpolationmode sample-hold
vector 381 scenario.client1.tcp.conn-43 cwnd:vector ETV
attr interpolationmode sample-hold
vector 382 scenario.client1.tcp.conn-43 ssthresh:vector ETV
attr interpolationmode sample-hold
vector 383 scenario.client1.tcp.conn-43 dupAcks:vector ETV
attr interpolationmode sample-hold
vector 384 scenario.client2.tcp.conn-45 tcpRcvQueueBytes:vector ETV
attr interpolationmode sample-hold
vector 385 scenario.client2.tcp.conn-45 rcvAdv:vector ETV
attr interpolationmode sample-hold
vector 386 scenario.client2.tcp.conn-45 rcvWnd:vector ETV
attr interpolationmode sample-hold
vector 387 scenario.client2.tcp.conn-45 sndAck:vector ETV
attr interpolationmode sample-hold
vector 388 scenario.client0.tcp.conn-46 rcvAdv:vector ETV
attr interpolationmode sample-hold
vector 389 scenario.client0.tcp.conn-46 sndWnd:vector ETV
attr interpolationmode sample-hold
vector 390 scenario.client0.tcp.conn-46 tcpRcvQueueBytes:vector ETV
attr interpolationmode sample-hold
vector 391 scenario.client0.tcp.conn-46 rcvWnd:vector ETV
attr interpolationmode sample-hold
vector 392 scenario.client0.tcp.conn-46 sndAck:vector ETV
attr interpolationmode sample-hold
vector 393 scenario.client2.tcp.conn-45 rcvSeq:vector ETV
attr interpolationmode sample-hold
vector 394 scenario.client2.tcp.conn-45 rcvAck:vector ETV
attr interpolationmode sample-hold
vector 395 scenario.client2.tcp.conn-45 sndWnd:vector ETV
attr interpolationmode sample-hold
vector 396 scenario.client2.tcp.conn-45 unacked:vector ETV
attr interpolationmode sample-hold
vector 397 scenario.client0.tcp.conn-46 rcvSeq:vector ETV
attr interpolationmode sample-hold
vector 398 scenario.client0.tcp.conn-46 rcvAck:vector ETV
attr interpolationmode sample-hold
vector 399 scenario.client0.tcp.conn-46 unacked:vector ETV
attr interpolationmode sample-hold
vector 400 scenario.client0.tcp.conn-46 cwnd:vector ETV
attr interpolationmode sample-hold
vector 401 scenario.client0.tcp.conn-46 ssthresh:vector ETV
attr interpolationmode sample-hold
vector 402 scenario.client0.tcp.conn-46 dupAcks:vector ETV
attr interpolationmode sample-hold
vector 403 scenario.client2.tcp.conn-45 rtt:vector ETV
attr interpolationmode sample-hold
vector 404 scenario.client2.tcp.conn-45 srtt:vector ETV
attr interpolationmode sample-hold
vector 405 scenario.client2.tcp.conn-45 rttvar:vector ETV
attr interpolationmode sample-hold
vector 406 scenario.client2.tcp.conn-45 rto:vector ETV
attr interpolationmode sample-hold
vector 407 scenario.client2.tcp.conn-45 cwnd:vector ETV
attr interpolationmode sample-hold
vector 408 scenario.client2.tcp.conn-45 ssthresh:vector ETV
attr interpolationmode sample-hold
vector 409 scenario.client2.tcp.conn-45 dupAcks:vector ETV
attr interpolationmode sample-hold
vector 410 scenario.client4.tcp.conn-47 tcpRcvQueueBytes:vector ETV
attr interpolationmode sample-hold
vector 411 scenario.client4.tcp.conn-47 rcvAdv:vector ETV
attr interpolationmode sample-hold
vector 412 scenario.client4.tcp.conn-47 rcvWnd:vector ETV
attr interpolationmode sample-hold
vector 413 scenario.client4.tcp.conn-47 sndAck:vector ETV
attr interpolationmode sample-hold
vector 414 scenario.client4.ppp[2].ppp rcvdPkFromHl:vector(packetBytes) ETV
attr interpolationmode none
attr source packetReceivedFromUpper
attr title "packets received from higher layer, vector(packetBytes)"
vector 415 scenario.client4.ppp[2].ppp.queue packetPushed:vector(packetBytes) ETV
attr interpolationmode none
attr title "packet pushed, vector(packetBytes)"
vector 416 scenario.client4.ppp[2].ppp.queue queueLength:vector ETV
attr interpolationmode sample-hold
attr source "count(packetPushed) - count(packetPopped) - count(packetRemoved) - count(packetDropped)"
attr title "queue length, vector"
vector 417 scenario.client4.ppp[2].ppp.queue packetPopped:vector(packetBytes) ETV
attr interpolationmode none
attr title "packet popped, vector(packetBytes)"
vector 418 scenario.client4.ppp[2].ppp.queue queueingTime:vector ETV
attr interpolationmode none
attr source queueingTime(packetPopped)
attr title "queueing times, vector"
attr unit s
vector 419 scenario.client4.ppp[2].ppp txPk:vector(packetBytes) ETV
attr interpolationmode none
attr source packetSentToLower
attr title "packets transmitted, vector(packetBytes)"
vector 420 scenario.client2.ppp[3].ppp rxPkOk:vector(packetBytes) ETV
attr interpolationmode none
attr source rxPkOk
attr title "packets received OK, vector(packetBytes)"
vector 421 scenario.client2.ppp[3].ppp passedUpPk:vector(packetBytes) ETV
attr interpolationmode none
attr source packetSentToUpper
attr title "packets passed to higher layer, vector(packetBytes)"
vector 422 scenario.client2.tcp.conn-48 rcvAdv:vector ETV
attr interpolationmode sample-hold
vector 423 scenario.client2.tcp.conn-48 sndWnd:vector ETV
attr interpolationmode sample-hold
vector 424 scenario.client2.tcp.conn-48 tcpRcvQueueBytes:vector ETV
attr interpolationmode sample-hold
vector 425 scenario.client2.tcp.conn-48 rcvWnd:vector ETV
attr interpolationmode sample-hold
vector 426 scenario.client2.tcp.conn-48 sndAck:vector ETV
attr interpolationmode sample-hold
vector 427 scenario.client2.ppp[3].ppp rcvdPkFromHl:vector(packetBytes) ETV
attr interpolationmode none
attr source packetReceivedFromUpper
attr title "packets received from higher layer, vector(packetBytes)"
vector 428 scenario.client2.ppp[3].ppp.queue packetPushed:vector(packetBytes) ETV
attr interpolationmode none
attr title "packet pushed, vector(packetBytes)"
vector 429 scenario.client2.ppp[3].ppp.queue queueLength:vector ETV
attr interpolationmode sample-hold
attr source "count(packetPushed) - count(packetPopped) - count(packetRemoved) - count(packetDropped)"
attr title "queue length, vector"
vector 430 scenario.client2.ppp[3].ppp.queue packetPopped:vector(packetBytes) ETV
attr interpolationmode none
attr title "packet popped, vector(packetBytes)"
vector 431 scenario.client2.ppp[3].ppp.queue queueingTime:vector ETV
attr interpolationmode none
attr source queueingTime(packetPopped)
attr title "queueing times, vector"
attr unit s
vector 432 scenario.client2.ppp[3].ppp txPk:vector(packetBytes) ETV
attr interpolationmode none
attr source packetSentToLower
attr title "packets transmitted, vector(packetBytes)"
vector 433 scenario.client4.ppp[2].ppp rxPkOk:vector(packetBytes) ETV
attr interpolationmode none
attr source rxPkOk
attr title "packets received OK, vector(packetBytes)"
vector 434 scenario.client4.ppp[2].ppp passedUpPk:vector(packetBytes) ETV
attr interpolationmode none
attr source packetSentToUpper
attr title "packets passed to higher layer, vector(packetBytes)"
vector 435 scenario.client4.tcp.conn-47 rcvSeq:vector ETV
attr interpolationmode sample-hold
vector 436 scenario.client4.tcp.conn-47 rcvAck:vector ETV
attr interpolationmode sample-hold
vector 437 scenario.client4.tcp.conn-47 sndWnd:vector ETV
attr interpolationmode sample-hold
vector 438 scenario.client4.tcp.conn-47 unacked:vector ETV
attr interpolationmode sample-hold
vector 439 scenario.client2.tcp.conn-48 rcvSeq:vector ETV
attr interpolationmode sample-hold
vector 440 scenario.client2.tcp.conn-48 rcvAck:vector ETV
attr interpolationmode sample-hold
vector 441 scenario.client2.tcp.conn-48 unacked:vector ETV
attr interpolationmode sample-hold
vector 442 scenario.client2.tcp.conn-48 cwnd:vector ETV
attr interpolationmode sample-hold
vector 443 scenario.client2.tcp.conn-48 ssthresh:vector ETV
attr interpolationmode sample-hold
vector 444 scenario.client2.tcp.conn-48 dupAcks:vector ETV
attr interpolationmode sample-hold
vector 445 scenario.client4.tcp.conn-47 rtt:vector ETV
attr interpolationmode sample-hold
vector 446 scenario.client4.tcp.conn-47 srtt:vector ETV
attr interpolationmode sample-hold
vector 447 scenario.client4.tcp.conn-47 rttvar:vector ETV
attr interpolationmode sample-hold
vector 448 scenario.client4.tcp.conn-47 rto:vector ETV
attr interpolationmode sample-hold
vector 449 scenario.client4.tcp.conn-47 cwnd:vector ETV
attr interpolationmode sample-hold
vector 450 scenario.client4.tcp.conn-47 ssthresh:vector ETV
attr interpolationmode sample-hold
vector 451 scenario.client4.tcp.conn-47 dupAcks:vector ETV
attr interpolationmode sample-hold
vector 452 scenario.client4.tcp.conn-49 tcpRcvQueueBytes:vector ETV
attr interpolationmode sample-hold
vector 453 scenario.client4.tcp.conn-49 rcvAdv:vector ETV
attr interpolationmode sample-hold
vector 454 scenario.client4.tcp.conn-49 rcvWnd:vector ETV
attr interpolationmode sample-hold
vector 455 scenario.client4.tcp.conn-49 sndAck:vector ETV
attr interpolationmode sample-hold
vector 456 scenario.client4.ppp[0].ppp rcvdPkFromHl:vector(packetBytes) ETV
attr interpolationmode none
attr source packetReceivedFromUpper
attr title "packets received from higher layer, vector(packetBytes)"
vector 457 scenario.client4.ppp[0].ppp.queue packetPushed:vector(packetBytes) ETV
attr interpolationmode none
attr title "packet pushed, vector(packetBytes)"
vector 458 scenario.client4.ppp[0].ppp.queue queueLength:vector ETV
attr interpolationmode sample-hold
attr source "count(packetPushed) - count(packetPopped) - count(packetRemoved) - count(packetDropped)"
attr title "queue length, vector"
vector 459 scenario.client4.ppp[0].ppp.queue packetPopped:vector(packetBytes) ETV
attr interpolationmode none
attr title "packet popped, vector(packetBytes)"
vector 460 scenario.client4.ppp[0].ppp.queue queueingTime:vector ETV
attr interpolationmode none
attr source queueingTime(packetPopped)
attr title "queueing times, vector"
attr unit s
vector 461 scenario.client4.ppp[0].ppp txPk:vector(packetBytes) ETV
attr interpolationmode none
attr source packetSentToLower
attr title "packets transmitted, vector(packetBytes)"
vector 462 scenario.client0.ppp[3].ppp rxPkOk:vector(packetBytes) ETV
attr interpolationmode none
attr source rxPkOk
attr title "packets received OK, vector(packetBytes)"
vector 463 scenario.client0.ppp[3].ppp passedUpPk:vector(packetBytes) ETV
attr interpolationmode none
attr source packetSentToUpper
attr title "packets passed to higher layer, vector(packetBytes)"
vector 464 scenario.client0.tcp.conn-50 rcvAdv:vector ETV
attr interpolationmode sample-hold
vector 465 scenario.client0.tcp.conn-50 sndWnd:vector ETV
attr interpolationmode sample-hold
vector 466 scenario.client0.tcp.conn-50 tcpRcvQueueBytes:vector ETV
attr interpolationmode sample-hold
vector 467 scenario.client0.tcp.conn-50 rcvWnd:vector ETV
attr interpolationmode sample-hold
vector 468 scenario.client0.tcp.conn-50 sndAck:vector ETV
attr interpolationmode sample-hold
vector 469 scenario.client0.ppp[3].ppp rcvdPkFromHl:vector(packetBytes) ETV
attr interpolationmode none
attr source packetReceivedFromUpper
attr title "packets received from higher layer, vector(packetBytes)"
vector 470 scenario.client0.ppp[3].ppp.queue packetPushed:vector(packetBytes) ETV
attr interpolationmode none
attr title "packet pushed, vector(packetBytes)"
vector 471 scenario.client0.ppp[3].ppp.queue queueLength:vector ETV
attr interpolationmode sample-hold
attr source "count(packetPushed) - count(packetPopped) - count(packetRemoved) - count(packetDropped)"
attr title "queue length, vector"
vector 472 scenario.client0.ppp[3].ppp.queue packetPopped:vector(packetBytes) ETV
attr interpolationmode none
attr title "packet popped, vector(packetBytes)"
vector 473 scenario.client0.ppp[3].ppp.queue queueingTime:vector ETV
attr interpolationmode none
attr source queueingTime(packetPopped)
attr title "queueing times, vector"
attr unit s
vector 474 scenario.client0.ppp[3].ppp txPk:vector(packetBytes) ETV
attr interpolationmode none
attr source packetSentToLower
attr title "packets transmitted, vector(packetBytes)"
vector 475 scenario.client4.ppp[0].ppp rxPkOk:vector(packetBytes) ETV
attr interpolationmode none
attr source rxPkOk
attr title "packets received OK, vector(packetBytes)"
vector 476 scenario.client4.ppp[0].ppp passedUpPk:vector(packetBytes) ETV
attr interpolationmode none
attr source packetSentToUpper
attr title "packets passed to higher layer, vector(packetBytes)"
vector 477 scenario.client4.tcp.conn-49 rcvSeq:vector ETV
attr interpolationmode sample-hold
vector 478 scenario.client4.tcp.conn-49 rcvAck:vector ETV
attr interpolationmode sample-hold
vector 479 scenario.client4.tcp.conn-49 sndWnd:vector ETV
attr interpolationmode sample-hold
vector 480 scenario.client4.tcp.conn-49 unacked:vector ETV
attr interpolationmode sample-hold
vector 481 scenario.client0.tcp.conn-50 rcvSeq:vector ETV
attr interpolationmode sample-hold
vector 482 scenario.client0.tcp.conn-50 rcvAck:vector ETV
attr interpolationmode sample-hold
vector 483 scenario.client0.tcp.conn-50 unacked:vector ETV
attr interpolationmode sample-hold
vector 484 scenario.client0.tcp.conn-50 cwnd:vector ETV
attr interpolationmode sample-hold
vector 485 scenario.client0.tcp.conn-50 ssthresh:vector ETV
attr interpolationmode sample-hold
vector 486 scenario.client0.tcp.conn-50 dupAcks:vector ETV
attr interpolationmode sample-hold
vector 487 scenario.client4.tcp.conn-49 rtt:vector ETV
attr interpolationmode sample-hold
vector 488 scenario.client4.tcp.conn-49 srtt:vector ETV
attr interpolationmode sample-hold
vector 489 scenario.client4.tcp.conn-49 rttvar:vector ETV
attr interpolationmode sample-hold
vector 490 scenario.client4.tcp.conn-49 rto:vector ETV
attr interpolationmode sample-hold
vector 491 scenario.client4.tcp.conn-49 cwnd:vector ETV
attr interpolationmode sample-hold
vector 492 scenario.client4.tcp.conn-49 ssthresh:vector ETV
attr interpolationmode sample-hold
vector 493 scenario.client4.tcp.conn-49 dupAcks:vector ETV
attr interpolationmode sample-hold
vector 494 scenario.client4.tcp.conn-51 tcpRcvQueueBytes:vector ETV
attr interpolationmode sample-hold
vector 495 scenario.client4.tcp.conn-51 rcvAdv:vector ETV
attr interpolationmode sample-hold
vector 496 scenario.client4.tcp.conn-51 rcvWnd:vector ETV
attr interpolationmode sample-hold
vector 497 scenario.client4.tcp.conn-51 sndAck:vector ETV
attr interpolationmode sample-hold
vector 498 scenario.client4.ppp[1].ppp rcvdPkFromHl:vector(packetBytes) ETV
attr interpolationmode none
attr source packetReceivedFromUpper
attr title "packets received from higher layer, vector(packetBytes)"
vector 499 scenario.client4.ppp[1].ppp.queue packetPushed:vector(packetBytes) ETV
attr interpolationmode none
attr title "packet pushed, vector(packetBytes)"
vector 500 scenario.client4.ppp[1].ppp.queue queueLength:vector ETV
attr interpolationmode sample-hold
attr source "count(packetPushed) - count(packetPopped) - count(packetRemoved) - count(packetDropped)"
attr title "queue length, vector"
vector 501 scenario.client4.ppp[1].ppp.queue packetPopped:vector(packetBytes) ETV
attr interpolationmode none
attr title "packet popped, vector(packetBytes)"
vector 502 scenario.client4.ppp[1].ppp.queue queueingTime:vector ETV
attr interpolationmode none
attr source queueingTime(packetPopped)
attr title "queueing times, vector"
attr unit s
vector 503 scenario.client4.ppp[1].ppp txPk:vector(packetBytes) ETV
attr interpolationmode none
attr source packetSentToLower
attr title "packets transmitted, vector(packetBytes)"
vector 504 scenario.client1.ppp[3].ppp rxPkOk:vector(packetBytes) ETV
attr interpolationmode none
attr source rxPkOk
attr title "packets received OK, vector(packetBytes)"
vector 505 scenario.client1.ppp[3].ppp passedUpPk:vector(packetBytes) ETV
attr interpolationmode none
attr source packetSentToUpper
attr title "packets passed to higher layer, vector(packetBytes)"
vector 506 scenario.client1.tcp.conn-52 rcvAdv:vector ETV
attr interpolationmode sample-hold
vector 507 scenario.client1.tcp.conn-52 sndWnd:vector ETV
attr interpolationmode sample-hold
vector 508 scenario.client1.tcp.conn-52 tcpRcvQueueBytes:vector ETV
attr interpolationmode sample-hold
vector 509 scenario.client1.tcp.conn-52 rcvWnd:vector ETV
attr interpolationmode sample-hold
vector 510 scenario.client1.tcp.conn-52 sndAck:vector ETV
attr interpolationmode sample-hold
vector 511 scenario.client1.ppp[3].ppp rcvdPkFromHl:vector(packetBytes) ETV
attr interpolationmode none
attr source packetReceivedFromUpper
attr title "packets received from higher layer, vector(packetBytes)"
vector 512 scenario.client1.ppp[3].ppp.queue packetPushed:vector(packetBytes) ETV
attr interpolationmode none
attr title "packet pushed, vector(packetBytes)"
vector 513 scenario.client1.ppp[3].ppp.queue queueLength:vector ETV
attr interpolationmode sample-hold
attr source "count(packetPushed) - count(packetPopped) - count(packetRemoved) - count(packetDropped)"
attr title "queue length, vector"
vector 514 scenario.client1.ppp[3].ppp.queue packetPopped:vector(packetBytes) ETV
attr interpolationmode none
attr title "packet popped, vector(packetBytes)"
vector 515 scenario.client1.ppp[3].ppp.queue queueingTime:vector ETV
attr interpolationmode none
attr source queueingTime(packetPopped)
attr title "queueing times, vector"
attr unit s
vector 516 scenario.client1.ppp[3].ppp txPk:vector(packetBytes) ETV
attr interpolationmode none
attr source packetSentToLower
attr title "packets transmitted, vector(packetBytes)"
vector 517 scenario.client4.ppp[1].ppp rxPkOk:vector(packetBytes) ETV
attr interpolationmode none
attr source rxPkOk
attr title "packets received OK, vector(packetBytes)"
vector 518 scenario.client4.ppp[1].ppp passedUpPk:vector(packetBytes) ETV
attr interpolationmode none
attr source packetSentToUpper
attr title "packets passed to higher layer, vector(packetBytes)"
vector 519 scenario.client4.tcp.conn-51 rcvSeq:vector ETV
attr interpolationmode sample-hold
vector 520 scenario.client4.tcp.conn-51 rcvAck:vector ETV
attr interpolationmode sample-hold
vector 521 scenario.client4.tcp.conn-51 sndWnd:vector ETV
attr interpolationmode sample-hold
vector 522 scenario.client4.tcp.conn-51 unacked:vector ETV
attr interpolationmode sample-hold
vector 523 scenario.client1.tcp.conn-52 rcvSeq:vector ETV
attr interpolationmode sample-hold
vector 524 scenario.client1.tcp.conn-52 rcvAck:vector ETV
attr interpolationmode sample-hold
vector 525 scenario.client1.tcp.conn-52 unacked:vector ETV
attr interpolationmode sample-hold
vector 526 scenario.client1.tcp.conn-52 cwnd:vector ETV
attr interpolationmode sample-hold
vector 527 scenario.client1.tcp.conn-52 ssthresh:vector ETV
attr interpolationmode sample-hold
vector 528 scenario.client1.tcp.conn-52 dupAcks:vector ETV
attr interpolationmode sample-hold
vector 529 scenario.client4.tcp.conn-51 rtt:vector ETV
attr interpolationmode sample-hold
vector 530 scenario.client4.tcp.conn-51 srtt:vector ETV
attr interpolationmode sample-hold
vector 531 scenario.client4.tcp.conn-51 rttvar:vector ETV
attr interpolationmode sample-hold
vector 532 scenario.client4.tcp.conn-51 rto:vector ETV
attr interpolationmode sample-hold
vector 533 scenario.client4.tcp.conn-51 cwnd:vector ETV
attr interpolationmode sample-hold
vector 534 scenario.client4.tcp.conn-51 ssthresh:vector ETV
attr interpolationmode sample-hold
vector 535 scenario.client4.tcp.conn-51 dupAcks:vector ETV
attr interpolationmode sample-hold
vector 536 scenario.client2.tcp.conn-53 tcpRcvQueueBytes:vector ETV
attr interpolationmode sample-hold
vector 537 scenario.client2.tcp.conn-53 rcvAdv:vector ETV
attr interpolationmode sample-hold
vector 538 scenario.client2.tcp.conn-53 rcvWnd:vector ETV
attr interpolationmode sample-hold
vector 539 scenario.client2.tcp.conn-53 sndAck:vector ETV
attr interpolationmode sample-hold
vector 540 scenario.client3.tcp.conn-54 rcvAdv:vector ETV
attr interpolationmode sample-hold
vector 541 scenario.client3.tcp.conn-54 sndWnd:vector ETV
attr interpolationmode sample-hold
vector 542 scenario.client3.tcp.conn-54 tcpRcvQueueBytes:vector ETV
attr interpolationmode sample-hold
vector 543 scenario.client3.tcp.conn-54 rcvWnd:vector ETV
attr interpolationmode sample-hold
vector 544 scenario.client3.tcp.conn-54 sndAck:vector ETV
attr interpolationmode sample-hold
vector 545 scenario.client2.tcp.conn-53 rcvSeq:vector ETV
attr interpolationmode sample-hold
vector 546 scenario.client2.tcp.conn-53 rcvAck:vector ETV
attr interpolationmode sample-hold
vector 547 scenario.client2.tcp.conn-53 sndWnd:vector ETV
attr interpolationmode sample-hold
vector 548 scenario.client2.tcp.conn-53 unacked:vector ETV
attr interpolationmode sample-hold
vector 549 scenario.client3.tcp.conn-54 rcvSeq:vector ETV
attr interpolationmode sample-hold
vector 550 scenario.client3.tcp.conn-54 rcvAck:vector ETV
attr interpolationmode sample-hold
vector 551 scenario.client3.tcp.conn-54 unacked:vector ETV
attr interpolationmode sample-hold
vector 552 scenario.client3.tcp.conn-54 cwnd:vector ETV
attr interpolationmode sample-hold
vector 553 scenario.client3.tcp.conn-54 ssthresh:vector ETV
attr interpolationmode sample-hold
vector 554 scenario.client3.tcp.conn-54 dupAcks:vector ETV
attr interpolationmode sample-hold
vector 555 scenario.client2.tcp.conn-53 rtt:vector ETV
attr interpolationmode sample-hold
vector 556 scenario.client2.tcp.conn-53 srtt:vector ETV
attr interpolationmode sample-hold
vector 557 scenario.client2.tcp.conn-53 rttvar:vector ETV
attr interpolationmode sample-hold
vector 558 scenario.client2.tcp.conn-53 rto:vector ETV
attr interpolationmode sample-hold
vector 559 scenario.client2.tcp.conn-53 cwnd:vector ETV
attr interpolationmode sample-hold
vector 560 scenario.client2.tcp.conn-53 ssthresh:vector ETV
attr interpolationmode sample-hold
vector 561 scenario.client2.tcp.conn-53 dupAcks:vector ETV
attr interpolationmode sample-hold
vector 562 scenario.client0.tcp.conn-55 tcpRcvQueueBytes:vector ETV
attr interpolationmode sample-hold
vector 563 scenario.client0.tcp.conn-55 rcvAdv:vector ETV
attr interpolationmode sample-hold
vector 564 scenario.client0.tcp.conn-55 rcvWnd:vector ETV
attr interpolationmode sample-hold
vector 565 scenario.client0.tcp.conn-55 sndAck:vector ETV
attr interpolationmode sample-hold
vector 566 scenario.client4.tcp.conn-4 rcvSeq:vector ETV
attr interpolationmode sample-hold
vector 567 scenario.client4.tcp.conn-4 rcvAck:vector ETV
attr interpolationmode sample-hold
vector 568 scenario.client4.tcp.conn-56 rcvAdv:vector ETV
attr interpolationmode sample-hold
vector 569 scenario.client4.tcp.conn-56 sndWnd:vector ETV
attr interpolationmode sample-hold
vector 570 scenario.client4.tcp.conn-56 tcpRcvQueueBytes:vector ETV
attr interpolationmode sample-hold
vector 571 scenario.client4.tcp.conn-56 rcvWnd:vector ETV
attr interpolationmode sample-hold
vector 572 scenario.client4.tcp.conn-56 sndAck:vector ETV
attr interpolationmode sample-hold
vector 573 scenario.client0.tcp.conn-55 rcvSeq:vector ETV
attr interpolationmode sample-hold
vector 574 scenario.client0.tcp.conn-55 rcvAck:vector ETV
attr interpolationmode sample-hold
vector 575 scenario.client0.tcp.conn-55 sndWnd:vector ETV
attr interpolationmode sample-hold
vector 576 scenario.client0.tcp.conn-55 unacked:vector ETV
attr interpolationmode sample-hold
vector 577 scenario.client4.tcp.conn-56 rcvSeq:vector ETV
attr interpolationmode sample-hold
vector 578 scenario.client4.tcp.conn-56 rcvAck:vector ETV
attr interpolationmode sample-hold
vector 579 scenario.client4.tcp.conn-56 unacked:vector ETV
attr interpolationmode sample-hold
vector 580 scenario.client4.tcp.conn-56 cwnd:vector ETV
attr interpolationmode sample-hold
vector 581 scenario.client4.tcp.conn-56 ssthresh:vector ETV
attr interpolationmode sample-hold
vector 582 scenario.client4.tcp.conn-56 dupAcks:vector ETV
attr interpolationmode sample-hold
vector 583 scenario.client0.tcp.conn-55 rtt:vector ETV
attr interpolationmode sample-hold
vector 584 scenario.client0.tcp.conn-55 srtt:vector ETV
attr interpolationmode sample-hold
vector 585 scenario.client0.tcp.conn-55 rttvar:vector ETV
attr interpolationmode sample-hold
vector 586 scenario.client0.tcp.conn-55 rto:vector ETV
attr interpolationmode sample-hold
vector 587 scenario.client0.tcp.conn-55 cwnd:vector ETV
attr interpolationmode sample-hold
vector 588 scenario.client0.tcp.conn-55 ssthresh:vector ETV
attr interpolationmode sample-hold
vector 589 scenario.client0.tcp.conn-55 dupAcks:vector ETV
attr interpolationmode sample-hold
vector 590 scenario.client2.tcp.conn-57 tcpRcvQueueBytes:vector ETV
attr interpolationmode sample-hold
vector 591 scenario.client2.tcp.conn-57 rcvAdv:vector ETV
attr interpolationmode sample-hold
vector 592 scenario.client2.tcp.conn-57 rcvWnd:vector ETV
attr interpolationmode sample-hold
vector 593 scenario.client2.tcp.conn-57 sndAck:vector ETV
attr interpolationmode sample-hold
vector 594 scenario.client4.tcp.conn-58 rcvAdv:vector ETV
attr interpolationmode sample-hold
vector 595 scenario.client4.tcp.conn-58 sndWnd:vector ETV
attr interpolationmode sample-hold
vector 596 scenario.client4.tcp.conn-58 tcpRcvQueueBytes:vector ETV
attr interpolationmode sample-hold
vector 597 scenario.client4.tcp.conn-58 rcvWnd:vector ETV
attr interpolationmode sample-hold
vector 598 scenario.client4.tcp.conn-58 sndAck:vector ETV
attr interpolationmode sample-hold
vector 599 scenario.client2.tcp.conn-57 rcvSeq:vector ETV
attr interpolationmode sample-hold
vector 600 scenario.client2.tcp.conn-57 rcvAck:vector ETV
attr interpolationmode sample-hold
vector 601 scenario.client2.tcp.conn-57 sndWnd:vector ETV
attr interpolationmode sample-hold
vector 602 scenario.client2.tcp.conn-57 unacked:vector ETV
attr interpolationmode sample-hold
vector 603 scenario.client4.tcp.conn-58 rcvSeq:vector ETV
attr interpolationmode sample-hold
vector 604 scenario.client4.tcp.conn-58 rcvAck:vector ETV
attr interpolationmode sample-hold
vector 605 scenario.client4.tcp.conn-58 unacked:vector ETV
attr interpolationmode sample-hold
vector 606 scenario.client4.tcp.conn-58 cwnd:vector ETV
attr interpolationmode sample-hold
vector 607 scenario.client4.tcp.conn-58 ssthresh:vector ETV
attr interpolationmode sample-hold
vector 608 scenario.client4.tcp.conn-58 dupAcks:vector ETV
attr interpolationmode sample-hold
vector 609 scenario.client2.tcp.conn-57 rtt:vector ETV
attr interpolationmode sample-hold
vector 610 scenario.client2.tcp.conn-57 srtt:vector ETV
attr interpolationmode sample-hold
vector 611 scenario.client2.tcp.conn-57 rttvar:vector ETV
attr interpolationmode sample-hold
vector 612 scenario.client2.tcp.conn-57 rto:vector ETV
attr interpolationmode sample-hold
vector 613 scenario.client2.tcp.conn-57 cwnd:vector ETV
attr interpolationmode sample-hold
vector 614 scenario.client2.tcp.conn-57 ssthresh:vector ETV
attr interpolationmode sample-hold
vector 615 scenario.client2.tcp.conn-57 dupAcks:vector ETV
attr interpolationmode sample-hold
vector 616 scenario.client1.tcp.conn-59 tcpRcvQueueBytes:vector ETV
attr interpolationmode sample-hold
vector 617 scenario.client1.tcp.conn-59 rcvAdv:vector ETV
attr interpolationmode sample-hold
vector 618 scenario.client1.tcp.conn-59 rcvWnd:vector ETV
attr interpolationmode sample-hold
vector 619 scenario.client1.tcp.conn-59 sndAck:vector ETV
attr interpolationmode sample-hold
vector 620 scenario.client4.tcp.conn-60 rcvAdv:vector ETV
attr interpolationmode sample-hold
vector 621 scenario.client4.tcp.conn-60 sndWnd:vector ETV
attr interpolationmode sample-hold
vector 622 scenario.client4.tcp.conn-60 tcpRcvQueueBytes:vector ETV
attr interpolationmode sample-hold
vector 623 scenario.client4.tcp.conn-60 rcvWnd:vector ETV
attr interpolationmode sample-hold
vector 624 scenario.client4.tcp.conn-60 sndAck:vector ETV
attr interpolationmode sample-hold
vector 625 scenario.client1.tcp.conn-59 rcvSeq:vector ETV
attr interpolationmode sample-hold
vector 626 scenario.client1.tcp.conn-59 rcvAck:vector ETV
attr interpolationmode sample-hold
vector 627 scenario.client1.tcp.conn-59 sndWnd:vector ETV
attr interpolationmode sample-hold
vector 628 scenario.client1.tcp.conn-59 unacked:vector ETV
attr interpolationmode sample-hold
vector 629 scenario.client4.tcp.conn-60 rcvSeq:vector ETV
attr interpolationmode sample-hold
vector 630 scenario.client4.tcp.conn-60 rcvAck:vector ETV
attr interpolationmode sample-hold
vector 631 scenario.client4.tcp.conn-60 unacked:vector ETV
attr interpolationmode sample-hold
vector 632 scenario.client4.tcp.conn-60 cwnd:vector ETV
attr interpolationmode sample-hold
vector 633 scenario.client4.tcp.conn-60 ssthresh:vector ETV
attr interpolationmode sample-hold
vector 634 scenario.client4.tcp.conn-60 dupAcks:vector ETV
attr interpolationmode sample-hold
vector 635 scenario.client1.tcp.conn-59 rtt:vector ETV
attr interpolationmode sample-hold
vector 636 scenario.client1.tcp.conn-59 srtt:vector ETV
attr interpolationmode sample-hold
vector 637 scenario.client1.tcp.conn-59 rttvar:vector ETV
attr interpolationmode sample-hold
vector 638 scenario.client1.tcp.conn-59 rto:vector ETV
attr interpolationmode sample-hold
vector 639 scenario.client1.tcp.conn-59 cwnd:vector ETV
attr interpolationmode sample-hold
vector 640 scenario.client1.tcp.conn-59 ssthresh:vector ETV
attr interpolationmode sample-hold
vector 641 scenario.client1.tcp.conn-59 dupAcks:vector ETV
attr interpolationmode sample-hold
0	78539 680 0 1261 0 5.568011388532 29 0 1 14 14
1	79219 677 0 1111 0 5.21924586224 29 0 1 14 14
2	79896 341 0 1171 0 5.290307766473 15 0 1 7 7
3	80237 347 0 1291 0 5.819972202766 15 0 1 7 7
4	80584 679 0 1268 0 5.568887388532 29 0 1 14 14
5	81263 681 0 1238 0 5.523323253883 29 0 1 14 14
6	81944 347 0 1246 0 5.546333468918 15 0 1 7 7
7	82291 345 0 1276 0 5.574959830806 15 0 1 7 7
8	82636 676 0 1118 0 5.22012186224 29 0 1 14 14
9	83312 680 0 1231 0 5.522447253883 29 0 1 14 14
10	83992 363 0 1201 0 5.45757971691 15 0 1 7 7
11	84355 361 0 1066 0 4.964874085757 15 0 1 7 7
12	84716 356 0 1178 0 5.291183766473 15 0 1 7 7
13	85072 362 0 1253 0 5.547209468918 15 0 1 7 7
14	85434 364 0 1208 0 5.45845571691 15 0 1 7 7
15	85798 10 0 0 0 0 1 0 0 0 0
16	85808 362 0 1298 0 5.820848202766 15 0 1 7 7
17	86170 360 0 1283 0 5.575835830806 15 0 1 7 7
18	86530 362 0 1073 0 4.965750085757 15 0 1 7 7
19	86892 10 0 0 0 0 1 0 0 0 0
20	86902 48 10 23 1.459489730522 1.461305730522 2 0 0 0 0
21	86950 85 10 23 1.459489730522 1.461305730522 3 7504 372604 752712 277723791648
22	87035 54 10 23 1.459489730522 1.461305730522 2 7504 7504 15008 112620032
23	87089 53 10 23 1.459489730522 1.461305730522 2 0 365100 365100 133298010000
24	87142 180 13 1177 1.459489730522 5.290807766473 7 40 44 289 11953
25	87322 180 13 1177 1.459489730522 5.290807766473 7 40 44 289 11953
26	87502 346 13 1177 1.459489730522 5.290807766473 14 0 1 7 7
27	87848 180 13 1177 1.459489730522 5.290807766473 7 40 44 289 11953
28	88028 173 13 1177 1.459489730522 5.290807766473 7 0 0 0 0
29	88201 180 13 1177 1.459489730522 5.290807766473 7 47 51 338 16342
30	88381 180 15 1179 1.460397730522 5.291683766473 7 47 51 338 16342
31	88561 180 15 1179 1.460397730522 5.291683766473 7 40 44 289 11953
32	88741 118 17 403 1.460397730522 2.490186847621 4 364872 622319 1926347 976693184955
33	88859 98 17 403 1.460397730522 2.490186847621 4 0 0 0 0
34	88957 87 17 30 1.460397730522 1.462189730522 3 372377 372377 1117131 415993890387
35	89044 54 17 30 1.460397730522 1.462189730522 2 7504 7504 15008 112620032
36	89098 72 17 30 1.460397730522 1.462189730522 3 0 1 1 1
37	89170 54 17 30 1.460397730522 1.462189730522 2 7503 7504 15007 112605025
38	89224 58 17 30 1.460397730522 1.462189730522 2 364873 364874 729747 266265342005
39	89282 180 19 1170 1.460397730522 5.289923766473 7 40 44 293 12279
40	89462 180 19 1170 1.460397730522 5.289923766473 7 40 44 293 12279
41	89642 346 19 1170 1.460397730522 5.289923766473 14 0 1 7 7
42	89988 180 19 1170 1.460397730522 5.289923766473 7 40 44 293 12279
43	90168 173 19 1170 1.460397730522 5.289923766473 7 0 0 0 0
44	90341 180 19 1170 1.460397730522 5.289923766473 7 47 51 342 16724
45	90521 180 21 1172 1.461305730522 5.290807766473 7 47 51 342 16724
46	90701 180 21 1172 1.461305730522 5.290807766473 7 40 44 293 12279
47	90881 58 23 46 1.461305730522 1.463065730522 2 365099 365100 730199 266595289801
48	90939 58 23 46 1.461305730522 1.463065730522 2 364873 364874 729747 266265342005
[...]
398	155235 188 352 1054 2.230569502853 4.884316924589 6 557195 557195 3343170 1862797608150
399	155423 26 352 352 2.230569502853 2.230569502853 1 0 0 0 0
400	155449 29 352 352 2.230569502853 2.230569502853 1 1072 1072 1072 1149184
401	155478 35 352 352 2.230569502853 2.230569502853 1 4294967295 4294967295 4294967295 1.844674406512e+019
402	155513 158 352 1054 2.230569502853 4.884316924589 6 0 0 0 0
403	155671 195 362 1061 2.231445502853 4.885192924589 6 0.00176 0.002144 0.010944 2.0084736e-005
404	155866 221 362 1061 2.231445502853 4.885192924589 6 0.00022 0.00101212024 0.003859158327 2.9304148619458e-006
405	156087 224 362 1061 2.231445502853 4.885192924589 6 0.337309528748 0.65647 2.896930260682 1.4701676781601
406	156311 221 362 1061 2.231445502853 4.885192924589 6 1.350250235232 2.6261 11.591580201055 23.536161966228
407	156532 176 362 1061 2.231445502853 4.885192924589 6 1072 3752 14472 39934144
408	156708 212 362 1061 2.231445502853 4.885192924589 6 4294967295 4294967295 25769803770 1.1068046439072e+020
409	156920 158 362 1061 2.231445502853 4.885192924589 6 0 0 0 0
410	157078 52 364 377 2.233045442061 2.234861442061 2 0 0 0 0
411	157130 91 364 377 2.233045442061 2.234861442061 3 7504 565993 1139490 640752462114
412	157221 58 364 377 2.233045442061 2.234861442061 2 7504 7504 15008 112620032
413	157279 57 364 377 2.233045442061 2.234861442061 2 0 558489 558489 311909963121
414	157336 190 367 1072 2.233045442061 4.965374085757 7 40 44 289 11953
415	157526 190 367 1072 2.233045442061 4.965374085757 7 40 44 289 11953
416	157716 366 367 1072 2.233045442061 4.965374085757 14 0 1 7 7
417	158082 190 367 1072 2.233045442061 4.965374085757 7 40 44 289 11953
418	158272 183 367 1072 2.233045442061 4.965374085757 7 0 0 0 0
419	158455 190 367 1072 2.233045442061 4.965374085757 7 47 51 338 16342
420	158645 190 369 1074 2.233953442061 4.966250085757 7 47 51 338 16342
421	158835 190 369 1074 2.233953442061 4.966250085757 7 40 44 289 11953
422	159025 93 371 384 2.233953442061 2.235745442061 3 565766 565766 1697298 960273500268
423	159118 58 371 384 2.233953442061 2.235745442061 2 7504 7504 15008 112620032
424	159176 78 371 384 2.233953442061 2.235745442061 3 0 1 1 1
425	159254 58 371 384 2.233953442061 2.235745442061 2 7503 7504 15007 112605025
426	159312 62 371 384 2.233953442061 2.235745442061 2 558262 558263 1116525 623314037813
427	159374 189 373 1065 2.233953442061 4.964490085757 7 40 44 293 12279
428	159563 189 373 1065 2.233953442061 4.964490085757 7 40 44 293 12279
429	159752 364 373 1065 2.233953442061 4.964490085757 14 0 1 7 7
430	160116 189 373 1065 2.233953442061 4.964490085757 7 40 44 293 12279
431	160305 182 373 1065 2.233953442061 4.964490085757 7 0 0 0 0
432	160487 189 373 1065 2.233953442061 4.964490085757 7 47 51 342 16724
433	160676 190 375 1067 2.234861442061 4.965374085757 7 47 51 342 16724
434	160866 190 375 1067 2.234861442061 4.965374085757 7 40 44 293 12279
435	161056 62 377 394 2.234861442061 2.236621442061 2 558488 558489 1116977 623818809265
436	161118 62 377 394 2.234861442061 2.236621442061 2 558262 558263 1116525 623314037813
437	161180 58 377 394 2.234861442061 2.236621442061 2 7503 7504 15007 112605025
438	161238 52 377 394 2.234861442061 2.236621442061 2 0 1 1 1
439	161290 31 384 384 2.235745442061 2.235745442061 1 558262 558262 558262 311656460644
440	161321 31 384 384 2.235745442061 2.235745442061 1 558489 558489 558489 311909963121
441	161352 26 384 384 2.235745442061 2.235745442061 1 0 0 0 0
442	161378 29 384 384 2.235745442061 2.235745442061 1 1072 1072 1072 1149184
443	161407 35 384 384 2.235745442061 2.235745442061 1 4294967295 4294967295 4294967295 1.844674406512e+019
444	161442 26 384 384 2.235745442061 2.235745442061 1 0 0 0 0
445	161468 32 394 394 2.236621442061 2.236621442061 1 0.00176 0.00176 0.00176 3.0976e-006
446	161500 32 394 394 2.236621442061 2.236621442061 1 0.00022 0.00022 0.00022 4.84e-008
447	161532 32 394 394 2.236621442061 2.236621442061 1 0.65647 0.65647 0.65647 0.4309528609
448	161564 31 394 394 2.236621442061 2.236621442061 1 2.6261 2.6261 2.6261 6.89640121
449	161595 29 394 394 2.236621442061 2.236621442061 1 1072 1072 1072 1149184
450	161624 35 394 394 2.236621442061 2.236621442061 1 4294967295 4294967295 4294967295 1.844674406512e+019
451	161659 26 394 394 2.236621442061 2.236621442061 1 0 0 0 0
452	161685 52 396 409 2.489278847621 2.491094847621 2 0 0 0 0
453	161737 91 396 409 2.489278847621 2.491094847621 3 7504 630051 1267606 793984835218
454	161828 58 396 409 2.489278847621 2.491094847621 2 7504 7504 15008 112620032
455	161886 57 396 409 2.489278847621 2.491094847621 2 0 622547 622547 387564767209
456	161943 190 399 1297 2.489278847621 5.820472202766 7 40 44 289 11953
457	162133 190 399 1297 2.489278847621 5.820472202766 7 40 44 289 11953
458	162323 366 399 1297 2.489278847621 5.820472202766 14 0 1 7 7
459	162689 190 399 1297 2.489278847621 5.820472202766 7 40 44 289 11953
460	162879 183 399 1297 2.489278847621 5.820472202766 7 0 0 0 0
461	163062 190 399 1297 2.489278847621 5.820472202766 7 47 51 338 16342
462	163252 190 401 1299 2.490186847621 5.821348202766 7 47 51 338 16342
463	163442 190 401 1299 2.490186847621 5.821348202766 7 40 44 289 11953
464	163632 93 403 416 2.490186847621 2.491978847621 3 629824 629824 1889472 1190034812928
465	163725 58 403 416 2.490186847621 2.491978847621 2 7504 7504 15008 112620032
466	163783 78 403 416 2.490186847621 2.491978847621 3 0 1 1 1
467	163861 58 403 416 2.490186847621 2.491978847621 2 7503 7504 15007 112605025
468	163919 62 403 416 2.490186847621 2.491978847621 2 622320 622321 1244641 774565609441
469	163981 190 405 1290 2.490186847621 5.819588202766 7 40 44 293 12279
470	164171 190 405 1290 2.490186847621 5.819588202766 7 40 44 293 12279
471	164361 366 405 1290 2.490186847621 5.819588202766 14 0 1 7 7
472	164727 190 405 1290 2.490186847621 5.819588202766 7 40 44 293 12279
473	164917 183 405 1290 2.490186847621 5.819588202766 7 0 0 0 0
474	165100 190 405 1290 2.490186847621 5.819588202766 7 47 51 342 16724
475	165290 190 407 1292 2.491094847621 5.820472202766 7 47 51 342 16724
476	165480 190 407 1292 2.491094847621 5.820472202766 7 40 44 293 12279
477	165670 62 409 426 2.491094847621 2.492854847621 2 622546 622547 1245093 775128289325
478	165732 62 409 426 2.491094847621 2.492854847621 2 622320 622321 1244641 774565609441
479	165794 58 409 426 2.491094847621 2.492854847621 2 7503 7504 15007 112605025
480	165852 52 409 426 2.491094847621 2.492854847621 2 0 1 1 1
481	165904 31 416 416 2.491978847621 2.491978847621 1 622320 622320 622320 387282182400
482	165935 31 416 416 2.491978847621 2.491978847621 1 622547 622547 622547 387564767209
483	165966 26 416 416 2.491978847621 2.491978847621 1 0 0 0 0
484	165992 29 416 416 2.491978847621 2.491978847621 1 1072 1072 1072 1149184
485	166021 35 416 416 2.491978847621 2.491978847621 1 4294967295 4294967295 4294967295 1.844674406512e+019
486	166056 26 416 416 2.491978847621 2.491978847621 1 0 0 0 0
487	166082 32 426 426 2.492854847621 2.492854847621 1 0.00176 0.00176 0.00176 3.0976e-006
488	166114 32 426 426 2.492854847621 2.492854847621 1 0.00022 0.00022 0.00022 4.84e-008
489	166146 32 426 426 2.492854847621 2.492854847621 1 0.65647 0.65647 0.65647 0.4309528609
490	166178 31 426 426 2.492854847621 2.492854847621 1 2.6261 2.6261 2.6261 6.89640121
491	166209 29 426 426 2.492854847621 2.492854847621 1 1072 1072 1072 1149184
492	166238 35 426 426 2.492854847621 2.492854847621 1 4294967295 4294967295 4294967295 1.844674406512e+019
493	166273 26 426 426 2.492854847621 2.492854847621 1 0 0 0 0
494	166299 52 428 441 2.581749931333 2.583565931333 2 0 0 0 0
495	166351 91 428 441 2.581749931333 2.583565931333 3 7504 653169 1313842 853315795138
496	166442 58 428 441 2.581749931333 2.583565931333 2 7504 7504 15008 112620032
497	166500 57 428 441 2.581749931333 2.583565931333 2 0 645665 645665 416883292225
498	166557 189 431 1282 2.581749931333 5.575459830806 7 40 44 289 11953
499	166746 189 431 1282 2.581749931333 5.575459830806 7 40 44 289 11953
500	166935 364 431 1282 2.581749931333 5.575459830806 14 0 1 7 7
501	167299 189 431 1282 2.581749931333 5.575459830806 7 40 44 289 11953
502	167488 182 431 1282 2.581749931333 5.575459830806 7 0 0 0 0
503	167670 189 431 1282 2.581749931333 5.575459830806 7 47 51 338 16342
504	167859 189 433 1284 2.582657931333 5.576335830806 7 47 51 338 16342
505	168048 189 433 1284 2.582657931333 5.576335830806 7 40 44 289 11953
506	168237 93 435 448 2.582657931333 2.584449931333 3 652942 652942 1958826 1278999766092
507	168330 58 435 448 2.582657931333 2.584449931333 2 7504 7504 15008 112620032
508	168388 78 435 448 2.582657931333 2.584449931333 3 0 1 1 1
509	168466 58 435 448 2.582657931333 2.584449931333 2 7503 7504 15007 112605025
510	168524 62 435 448 2.582657931333 2.584449931333 2 645438 645439 1290877 833181714565
511	168586 189 437 1275 2.582657931333 5.574575830806 7 40 44 293 12279
512	168775 189 437 1275 2.582657931333 5.574575830806 7 40 44 293 12279
513	168964 364 437 1275 2.582657931333 5.574575830806 14 0 1 7 7
514	169328 189 437 1275 2.582657931333 5.574575830806 7 40 44 293 12279
515	169517 182 437 1275 2.582657931333 5.574575830806 7 0 0 0 0
516	169699 189 437 1275 2.582657931333 5.574575830806 7 47 51 342 16724
517	169888 189 439 1277 2.583565931333 5.575459830806 7 47 51 342 16724
518	170077 189 439 1277 2.583565931333 5.575459830806 7 40 44 293 12279
519	170266 62 441 458 2.583565931333 2.585325931333 2 645664 645665 1291329 833765293121
520	170328 62 441 458 2.583565931333 2.585325931333 2 645438 645439 1290877 833181714565
521	170390 58 441 458 2.583565931333 2.585325931333 2 7503 7504 15007 112605025
522	170448 52 441 458 2.583565931333 2.585325931333 2 0 1 1 1
523	170500 31 448 448 2.584449931333 2.584449931333 1 645438 645438 645438 416590211844
524	170531 31 448 448 2.584449931333 2.584449931333 1 645665 645665 645665 416883292225
525	170562 26 448 448 2.584449931333 2.584449931333 1 0 0 0 0
526	170588 29 448 448 2.584449931333 2.584449931333 1 1072 1072 1072 1149184
527	170617 35 448 448 2.584449931333 2.584449931333 1 4294967295 4294967295 4294967295 1.844674406512e+019
528	170652 26 448 448 2.584449931333 2.584449931333 1 0 0 0 0
529	170678 32 458 458 2.585325931333 2.585325931333 1 0.00176 0.00176 0.00176 3.0976e-006
530	170710 32 458 458 2.585325931333 2.585325931333 1 0.00022 0.00022 0.00022 4.84e-008
531	170742 32 458 458 2.585325931333 2.585325931333 1 0.65647 0.65647 0.65647 0.4309528609
532	170774 31 458 458 2.585325931333 2.585325931333 1 2.6261 2.6261 2.6261 6.89640121
533	170805 29 458 458 2.585325931333 2.585325931333 1 1072 1072 1072 1149184
534	170834 35 458 458 2.585325931333 2.585325931333 1 4294967295 4294967295 4294967295 1.844674406512e+019
535	170869 26 458 458 2.585325931333 2.585325931333 1 0 0 0 0
536	170895 131 460 1198 2.712807730339 5.45719571691 5 0 0 0 0
537	171026 185 460 1198 2.712807730339 5.45719571691 6 7504 685933 3437169 2352576712461
538	171211 146 460 1198 2.712807730339 5.45719571691 5 7504 7504 37520 281550080
539	171357 151 460 1198 2.712807730339 5.45719571691 5 0 678429 2713716 1841063632164
540	171508 188 467 1204 2.713715730339 5.45807971691 6 685706 685711 4114248 2821172767610
541	171696 58 467 480 2.713715730339 2.715507730339 2 7504 7504 15008 112620032
542	171754 238 467 1204 2.713715730339 5.45807971691 9 0 1 1 1
543	171992 147 467 1204 2.713715730339 5.45807971691 5 7503 7504 37519 281535073
544	172139 157 467 1204 2.713715730339 5.45807971691 5 678202 678207 3391023 2299807397323
545	172296 157 473 1211 2.714623730339 5.45895571691 5 678428 678429 3392144 2301328183348
546	172453 157 473 1211 2.714623730339 5.45895571691 5 678202 678207 3391023 2299807397323
547	172610 147 473 1211 2.714623730339 5.45895571691 5 7503 7504 37519 281535073
548	172757 211 473 1211 2.714623730339 5.45895571691 8 0 2 5 7
549	172968 126 480 1204 2.715507730339 5.45807971691 4 678202 678206 2712816 1839842662474
550	173094 126 480 1204 2.715507730339 5.45807971691 4 678429 678429 2713716 1841063632164
551	173220 26 480 480 2.715507730339 2.715507730339 1 0 0 0 0
552	173246 29 480 480 2.715507730339 2.715507730339 1 1072 1072 1072 1149184
553	173275 35 480 480 2.715507730339 2.715507730339 1 4294967295 4294967295 4294967295 1.844674406512e+019
554	173310 106 480 1204 2.715507730339 5.45807971691 4 0 0 0 0
555	173416 131 490 1211 2.716383730339 5.45895571691 4 0.00176 0.001768 0.007048 1.2418624e-005
556	173547 144 490 1211 2.716383730339 5.45895571691 4 0.00022 0.000729085938 0.001944398438 1.0894543401456e-006
557	173691 146 490 1211 2.716383730339 5.45895571691 4 0.440226308594 0.65647 2.174248527344 1.2078788387229
558	173837 143 490 1211 2.716383730339 5.45895571691 4 1.761634320314 2.6261 8.698938507814 19.334027360216
559	173980 118 490 1211 2.716383730339 5.45895571691 4 1072 2680 7504 15513984
560	174098 142 490 1211 2.716383730339 5.45895571691 4 4294967295 4294967295 17179869180 7.3786976260478e+019
561	174240 106 490 1211 2.716383730339 5.45895571691 4 0 0 0 0
562	174346 131 492 1288 2.895403024384 5.819588202766 5 0 0 0 0
563	174477 185 492 1288 2.895403024384 5.819588202766 6 7504 731582 3665414 2676117423636
564	174662 146 492 1288 2.895403024384 5.819588202766 5 7504 7504 37520 281550080
565	174808 151 492 1288 2.895403024384 5.819588202766 5 0 724078 2896312 2097155800336
566	174959 93 499 583 2.896311024384 3.558654235542 3 723850 889436 2384264 1909462297080
567	175052 78 499 583 2.896311024384 3.558654235542 3 0 0 0 0
568	175130 187 499 1294 2.896311024384 5.820472202766 6 731355 731360 4388142 3209298368720
569	175317 58 499 512 2.896311024384 2.898103024384 2 7504 7504 15008 112620032
570	175375 236 499 1294 2.896311024384 5.820472202766 9 0 1 1 1
571	175611 146 499 1294 2.896311024384 5.820472202766 5 7503 7504 37519 281535073
572	175757 156 499 1294 2.896311024384 5.820472202766 5 723851 723856 3619268 2619820171182
573	175913 156 505 1301 2.897219024384 5.821348202766 5 724077 724078 3620389 2621443302265
574	176069 156 505 1301 2.897219024384 5.821348202766 5 723851 723856 3619268 2619820171182
575	176225 146 505 1301 2.897219024384 5.821348202766 5 7503 7504 37519 281535073
576	176371 210 505 1301 2.897219024384 5.821348202766 8 0 2 5 7
577	176581 125 512 1294 2.898103024384 5.820472202766 4 723851 723855 2895412 2095852662446
578	176706 125 512 1294 2.898103024384 5.820472202766 4 724078 724078 2896312 2097155800336
579	176831 26 512 512 2.898103024384 2.898103024384 1 0 0 0 0
580	176857 29 512 512 2.898103024384 2.898103024384 1 1072 1072 1072 1149184
581	176886 35 512 512 2.898103024384 2.898103024384 1 4294967295 4294967295 4294967295 1.844674406512e+019
582	176921 105 512 1294 2.898103024384 5.820472202766 4 0 0 0 0
583	177026 130 522 1301 2.898979024384 5.821348202766 4 0.00176 0.001768 0.007048 1.2418624e-005
584	177156 143 522 1301 2.898979024384 5.821348202766 4 0.00022 0.000729085938 0.001944398438 1.0894543401456e-006
585	177299 145 522 1301 2.898979024384 5.821348202766 4 0.440226308594 0.65647 2.174248527344 1.2078788387229
586	177444 142 522 1301 2.898979024384 5.821348202766 4 1.761634320314 2.6261 8.698938507814 19.334027360216
587	177586 117 522 1301 2.898979024384 5.821348202766 4 1072 2680 7504 15513984
588	177703 141 522 1301 2.898979024384 5.821348202766 4 4294967295 4294967295 17179869180 7.3786976260478e+019
589	177844 105 522 1301 2.898979024384 5.821348202766 4 0 0 0 0
590	177949 130 529 1063 3.083915857418 4.964490085757 5 0 0 0 0
591	178079 184 529 1063 3.083915857418 4.964490085757 6 7504 778710 3901054 3032002630516
592	178263 145 529 1063 3.083915857418 4.964490085757 5 7504 7504 37520 281550080
593	178408 150 529 1063 3.083915857418 4.964490085757 5 0 771206 3084824 2379034777744
594	178558 187 536 1069 3.084823857418 4.965374085757 6 778483 778488 4670909 3636231814405
595	178745 58 536 549 3.084823857418 3.086615857418 2 7504 7504 15008 112620032
596	178803 236 536 1069 3.084823857418 4.965374085757 9 0 1 1 1
597	179039 146 536 1069 3.084823857418 4.965374085757 5 7503 7504 37519 281535073
598	179185 156 536 1069 3.084823857418 4.965374085757 5 770979 770984 3854907 2972061595747
599	179341 156 542 1076 3.085731857418 4.966250085757 5 771205 771206 3856029 2973791929769
600	179497 156 542 1076 3.085731857418 4.966250085757 5 770979 770984 3854907 2972061595747
601	179653 146 542 1076 3.085731857418 4.966250085757 5 7503 7504 37519 281535073
602	179799 209 542 1076 3.085731857418 4.966250085757 8 0 2 5 7
603	180008 125 549 1069 3.086615857418 4.965374085757 4 770979 770983 3083923 2377645267491
604	180133 125 549 1069 3.086615857418 4.965374085757 4 771206 771206 3084824 2379034777744
605	180258 26 549 549 3.086615857418 3.086615857418 1 0 0 0 0
606	180284 29 549 549 3.086615857418 3.086615857418 1 1072 1072 1072 1149184
607	180313 35 549 549 3.086615857418 3.086615857418 1 4294967295 4294967295 4294967295 1.844674406512e+019
608	180348 105 549 1069 3.086615857418 4.965374085757 4 0 0 0 0
609	180453 130 559 1076 3.087491857418 4.966250085757 4 0.00176 0.001768 0.007048 1.2418624e-005
610	180583 143 559 1076 3.087491857418 4.966250085757 4 0.00022 0.000729195313 0.001943632813 1.0889333084074e-006
611	180726 145 559 1076 3.087491857418 4.966250085757 4 0.440226511719 0.65647 2.174247980469 1.2078781198302
612	180871 142 559 1076 3.087491857418 4.966250085757 4 1.761635242189 2.6261 8.698935554689 19.334012147768
613	181013 117 559 1076 3.087491857418 4.966250085757 4 1072 2680 7504 15513984
614	181130 141 559 1076 3.087491857418 4.966250085757 4 4294967295 4294967295 17179869180 7.3786976260478e+019
615	181271 105 559 1076 3.087491857418 4.966250085757 4 0 0 0 0
616	181376 130 576 1273 3.557746235542 5.574575830806 5 0 0 0 0
617	181506 184 576 1273 3.557746235542 5.574575830806 6 7504 897168 4493344 4024608411136
618	181690 145 576 1273 3.557746235542 5.574575830806 5 7504 7504 37520 281550080
619	181835 150 576 1273 3.557746235542 5.574575830806 5 0 889664 3558656 3166008131584
620	181985 186 583 1279 3.558654235542 5.575459830806 6 896941 896946 5381658 4827040471520
621	182171 58 583 596 3.558654235542 3.560446235542 2 7504 7504 15008 112620032
622	182229 234 583 1279 3.558654235542 5.575459830806 9 0 1 1 1
623	182463 145 583 1279 3.558654235542 5.575459830806 5 7503 7504 37519 281535073
624	182608 155 583 1279 3.558654235542 5.575459830806 5 889437 889442 4447198 3955514010258
625	182763 155 589 1286 3.559562235542 5.576335830806 5 889663 889664 4448319 3957508385153
626	182918 155 589 1286 3.559562235542 5.576335830806 5 889437 889442 4447198 3955514010258
627	183073 145 589 1286 3.559562235542 5.576335830806 5 7503 7504 37519 281535073
628	183218 208 589 1286 3.559562235542 5.576335830806 8 0 2 5 7
629	183426 124 596 1279 3.560446235542 5.575459830806 4 889437 889441 3557756 3164406938894
630	183550 124 596 1279 3.560446235542 5.575459830806 4 889664 889664 3558656 3166008131584
631	183674 26 596 596 3.560446235542 3.560446235542 1 0 0 0 0
632	183700 29 596 596 3.560446235542 3.560446235542 1 1072 1072 1072 1149184
633	183729 35 596 596 3.560446235542 3.560446235542 1 4294967295 4294967295 4294967295 1.844674406512e+019
634	183764 104 596 1279 3.560446235542 5.575459830806 4 0 0 0 0
635	183868 129 606 1286 3.561322235542 5.576335830806 4 0.00176 0.001768 0.007048 1.2418624e-005
636	183997 142 606 1286 3.561322235542 5.576335830806 4 0.00022 0.000729085938 0.001944398438 1.0894543401456e-006
637	184139 144 606 1286 3.561322235542 5.576335830806 4 0.440226308594 0.65647 2.174248527344 1.2078788387229
638	184283 141 606 1286 3.561322235542 5.576335830806 4 1.761634320314 2.6261 8.698938507814 19.334027360216
639	184424 116 606 1286 3.561322235542 5.576335830806 4 1072 2680 7504 15513984
640	184540 140 606 1286 3.561322235542 5.576335830806 4 4294967295 4294967295 17179869180 7.3786976260478e+019
641	184680 104 606 1286 3.561322235542 5.576335830806 4 0 0 0 0

