version 2
run BROADCAST8b-0-20220208-18:29:49-14888
attr configname BROADCAST8b
attr datetime 20220208-18:29:49
attr experiment BROADCAST8b
attr inifile omnetpp.ini
attr iterationvars ""
attr iterationvarsf ""
attr measurement ""
attr network scenario
attr processid 14888
attr repetition 0
attr replication #0
attr resultdir results
attr runnumber 0
attr seedset 0
param *.n 8
param **.client[*].app[0].nPar 8
param **.client[*].app[0].nNPar 3
param **.client[0].app[0].numMsg 4
param **.client[0].app[0].sendFrequency 2.5
param **.client[0].app[0].startSend 0.5
param **.client[1].app[0].numMsg 4
param **.client[1].app[0].sendFrequency 2.5
param **.client[1].app[0].startSend 3.5
param **.client[5].app[0].join 1.0
param **.client[6].app[0].join 4.0
param **.client[7].app[0].join 10.0
param **.ppp[*].ppp.queue.typename "\"DropTailQueue\""
param **.tcp.typename "\"Tcp\""
param **.tcp.nagleEnabled false
param **.client[*].app[*].fPar 0
param **.numApps 1
param **.client[*].app[*].typename "\"Node\""
param **.client[*].app[0].localPort index+1000
param **.client[*].app[0].localPortL 1234
param **.client[*].app[0].connectAddress "\"\""
param **.client[*].app[0].connectPort 1234

scalar scenario.client[0].lo[0].lo rcvdPkFromHl:count 0
attr interpolationmode none
attr source packetReceivedFromUpper
attr title "packets received from higher layer, count"
scalar scenario.client[0].lo[0].lo rcvdPkFromHl:sum(packetBytes) 0
attr interpolationmode none
attr source packetReceivedFromUpper
attr title "packets received from higher layer, sum(packetBytes)"
scalar scenario.client[0].lo[0].lo passedUpPk:count 0
attr interpolationmode none
attr source packetSentToUpper
attr title "packets passed to higher layer, count"
scalar scenario.client[0].lo[0].lo passedUpPk:sum(packetBytes) 0
attr interpolationmode none
attr source packetSentToUpper
attr title "packets passed to higher layer, sum(packetBytes)"
scalar scenario.client[0].ppp[0].ppp.queue packetPopped:count 148
attr interpolationmode none
attr title "packet popped, count"
scalar scenario.client[0].ppp[0].ppp.queue packetPopped:sum(packetBytes) 6001
attr interpolationmode none
attr title "packet popped, sum(packetBytes)"
statistic scenario.client[0].ppp[0].ppp.queue queueingTime:histogram
field count 148
field mean 4.827027027027e-005
field stddev 0.00012620308623039
field min 0
field max 0.000376
field sum 0.007144
field sqrsum 2.686144e-006
attr interpolationmode none
attr source queueingTime(packetPopped)
attr title "queueing times, histogram"
attr unit s
bin	-inf	0
bin	0	129
bin	1e-005	0
bin	2e-005	0
bin	3e-005	0
bin	4e-005	0
bin	5e-005	0
bin	6e-005	0
bin	7e-005	0
bin	8e-005	0
bin	9e-005	0
bin	0.0001	0
bin	0.00011	0
bin	0.00012	0
bin	0.00013	0
bin	0.00014	0
bin	0.00015	0
bin	0.00016	0
bin	0.00017	0
bin	0.00018	0
bin	0.00019	0
bin	0.0002	0
bin	0.00021	0
bin	0.00022	0
bin	0.00023	0
bin	0.00024	0
bin	0.00025	0
bin	0.00026	0
bin	0.00027	0
bin	0.00028	0
bin	0.00029	0
bin	0.0003	0
bin	0.00031	0
bin	0.00032	0
bin	0.00033	0
bin	0.00034	0
bin	0.00035	0
bin	0.00036	0
bin	0.00037	19
bin	0.00038	0
bin	0.00039	0
bin	0.0004	0
bin	0.00041	0
bin	0.00042	0
bin	0.00043	0
bin	0.00044	0
bin	0.00045	0
bin	0.00046	0
bin	0.00047	0
scalar scenario.client[0].ppp[0].ppp.queue queueLength:max 1
attr interpolationmode sample-hold
attr source "count(packetPushed) - count(packetPopped) - count(packetRemoved) - count(packetDropped)"
attr title "queue length, max"
scalar scenario.client[0].ppp[0].ppp.queue queueLength:timeavg 3.2474941473282e-007
attr interpolationmode sample-hold
attr source "count(packetPushed) - count(packetPopped) - count(packetRemoved) - count(packetDropped)"
attr title "queue length, timeavg"
scalar scenario.client[0].ppp[0].ppp.queue packetPushed:count 148
attr interpolationmode none
attr title "packet pushed, count"
scalar scenario.client[0].ppp[0].ppp.queue packetPushed:sum(packetBytes) 6001
attr interpolationmode none
attr title "packet pushed, sum(packetBytes)"
scalar scenario.client[0].ppp[0].ppp.queue packetDropQueueOverflow:count 0
attr interpolationmode none
attr source packetDropReasonIsQueueOverflow(packetDropped)
attr title "packet drops: queue overflow, count"
scalar scenario.client[0].ppp[0].ppp.queue packetDropQueueOverflow:sum(packetBytes) 0
attr interpolationmode none
attr source packetDropReasonIsQueueOverflow(packetDropped)
attr title "packet drops: queue overflow, sum(packetBytes)"
scalar scenario.client[0].ppp[0].ppp.queue packetRemoved:count 0
attr interpolationmode none
attr title "packets removed, count"
scalar scenario.client[0].ppp[0].ppp.queue packetRemoved:sum(packetBytes) 0
attr interpolationmode none
attr title "packets removed, sum(packetBytes)"
scalar scenario.client[0].ppp[0].ppp txPk:count 148
attr interpolationmode none
attr source packetSentToLower
attr title "packets transmitted, count"
scalar scenario.client[0].ppp[0].ppp txPk:sum(packetBytes) 7037
attr interpolationmode none
attr source packetSentToLower
attr title "packets transmitted, sum(packetBytes)"
scalar scenario.client[0].ppp[0].ppp rcvdPkFromHl:count 148
attr interpolationmode none
attr source packetReceivedFromUpper
attr title "packets received from higher layer, count"
scalar scenario.client[0].ppp[0].ppp rcvdPkFromHl:sum(packetBytes) 6001
attr interpolationmode none
attr source packetReceivedFromUpper
attr title "packets received from higher layer, sum(packetBytes)"
scalar scenario.client[0].ppp[0].ppp passedUpPk:count 148
attr interpolationmode none
attr source packetSentToUpper
attr title "packets passed to higher layer, count"
scalar scenario.client[0].ppp[0].ppp passedUpPk:sum(packetBytes) 6005
attr interpolationmode none
attr source packetSentToUpper
attr title "packets passed to higher layer, sum(packetBytes)"
scalar scenario.client[0].ppp[0].ppp packetDropIncorrectlyReceived:count 0
attr interpolationmode none
attr source packetDropReasonIsIncorrectlyReceived(packetDropped)
attr title "packet drop: incorrectly received, count"
scalar scenario.client[0].ppp[0].ppp packetDropIncorrectlyReceived:sum(packetBytes) 0
attr interpolationmode none
attr source packetDropReasonIsIncorrectlyReceived(packetDropped)
attr title "packet drop: incorrectly received, sum(packetBytes)"
scalar scenario.client[0].ppp[0].ppp packetDropInterfaceDown:count 0
attr interpolationmode none
attr source packetDropReasonIsInterfaceDown(packetDropped)
attr title "packet drop: interface down, count"
scalar scenario.client[0].ppp[0].ppp packetDropInterfaceDown:sum(packetBytes) 0
attr interpolationmode none
attr source packetDropReasonIsInterfaceDown(packetDropped)
attr title "packet drop: interface down, sum(packetBytes)"
scalar scenario.client[0].ppp[0].ppp rxPkOk:count 148
attr interpolationmode none
attr source rxPkOk
attr title "packets received OK, count"
scalar scenario.client[0].ppp[0].ppp rxPkOk:sum(packetBytes) 7041
attr interpolationmode none
attr source rxPkOk
attr title "packets received OK, sum(packetBytes)"
scalar scenario.client[0].ppp[0].ppp transmissionState:timeavg 2.5590254102459e-006
attr interpolationmode sample-hold
attr source transmissionStateChanged
attr title "tx state, timeavg"
scalar scenario.client[0].ppp[1].ppp.queue packetPopped:count 143
attr interpolationmode none
attr title "packet popped, count"
scalar scenario.client[0].ppp[1].ppp.queue packetPopped:sum(packetBytes) 5803
attr interpolationmode none
attr title "packet popped, sum(packetBytes)"
statistic scenario.client[0].ppp[1].ppp.queue queueingTime:histogram
field count 143
field mean 6.5734265734266e-005
field stddev 0.00014331335464781
field min 0
field max 0.000376
field sum 0.0094
field sqrsum 3.5344e-006
attr interpolationmode none
attr source queueingTime(packetPopped)
attr title "queueing times, histogram"
attr unit s
bin	-inf	0
bin	0	118
bin	1e-005	0
bin	2e-005	0
bin	3e-005	0
bin	4e-005	0
bin	5e-005	0
bin	6e-005	0
bin	7e-005	0
bin	8e-005	0
bin	9e-005	0
bin	0.0001	0
bin	0.00011	0
bin	0.00012	0
bin	0.00013	0
bin	0.00014	0
bin	0.00015	0
bin	0.00016	0
bin	0.00017	0
bin	0.00018	0
bin	0.00019	0
bin	0.0002	0
bin	0.00021	0
bin	0.00022	0
bin	0.00023	0
bin	0.00024	0
bin	0.00025	0
bin	0.00026	0
bin	0.00027	0
bin	0.00028	0
bin	0.00029	0
bin	0.0003	0
bin	0.00031	0
bin	0.00032	0
bin	0.00033	0
bin	0.00034	0
bin	0.00035	0
bin	0.00036	0
bin	0.00037	25
bin	0.00038	0
bin	0.00039	0
bin	0.0004	0
bin	0.00041	0
bin	0.00042	0
bin	0.00043	0
bin	0.00044	0
bin	0.00045	0
bin	0.00046	0
bin	0.00047	0
scalar scenario.client[0].ppp[1].ppp.queue queueLength:max 1
attr interpolationmode sample-hold
attr source "count(packetPushed) - count(packetPopped) - count(packetRemoved) - count(packetDropped)"
attr title "queue length, max"
scalar scenario.client[0].ppp[1].ppp.queue queueLength:timeavg 4.2731073209152e-007
attr interpolationmode sample-hold
attr source "count(packetPushed) - count(packetPopped) - count(packetRemoved) - count(packetDropped)"
attr title "queue length, timeavg"
scalar scenario.client[0].ppp[1].ppp.queue packetPushed:count 143
attr interpolationmode none
attr title "packet pushed, count"
scalar scenario.client[0].ppp[1].ppp.queue packetPushed:sum(packetBytes) 5803
attr interpolationmode none
attr title "packet pushed, sum(packetBytes)"
scalar scenario.client[0].ppp[1].ppp.queue packetDropQueueOverflow:count 0
attr interpolationmode none
attr source packetDropReasonIsQueueOverflow(packetDropped)
attr title "packet drops: queue overflow, count"
scalar scenario.client[0].ppp[1].ppp.queue packetDropQueueOverflow:sum(packetBytes) 0
attr interpolationmode none
attr source packetDropReasonIsQueueOverflow(packetDropped)
attr title "packet drops: queue overflow, sum(packetBytes)"
scalar scenario.client[0].ppp[1].ppp.queue packetRemoved:count 0
attr interpolationmode none
attr title "packets removed, count"
scalar scenario.client[0].ppp[1].ppp.queue packetRemoved:sum(packetBytes) 0
attr interpolationmode none
attr title "packets removed, sum(packetBytes)"
scalar scenario.client[0].ppp[1].ppp txPk:count 143
attr interpolationmode none
attr source packetSentToLower
attr title "packets transmitted, count"
scalar scenario.client[0].ppp[1].ppp txPk:sum(packetBytes) 6804
attr interpolationmode none
attr source packetSentToLower
attr title "packets transmitted, sum(packetBytes)"
scalar scenario.client[0].ppp[1].ppp rcvdPkFromHl:count 143
attr interpolationmode none
attr source packetReceivedFromUpper
attr title "packets received from higher layer, count"
scalar scenario.client[0].ppp[1].ppp rcvdPkFromHl:sum(packetBytes) 5803
attr interpolationmode none
attr source packetReceivedFromUpper
attr title "packets received from higher layer, sum(packetBytes)"
scalar scenario.client[0].ppp[1].ppp passedUpPk:count 143
attr interpolationmode none
attr source packetSentToUpper
attr title "packets passed to higher layer, count"
scalar scenario.client[0].ppp[1].ppp passedUpPk:sum(packetBytes) 5798
attr interpolationmode none
attr source packetSentToUpper
attr title "packets passed to higher layer, sum(packetBytes)"
scalar scenario.client[0].ppp[1].ppp packetDropIncorrectlyReceived:count 0
attr interpolationmode none
attr source packetDropReasonIsIncorrectlyReceived(packetDropped)
attr title "packet drop: incorrectly received, count"
scalar scenario.client[0].ppp[1].ppp packetDropIncorrectlyReceived:sum(packetBytes) 0
attr interpolationmode none
attr source packetDropReasonIsIncorrectlyReceived(packetDropped)
attr title "packet drop: incorrectly received, sum(packetBytes)"
scalar scenario.client[0].ppp[1].ppp packetDropInterfaceDown:count 0
attr interpolationmode none
attr source packetDropReasonIsInterfaceDown(packetDropped)
attr title "packet drop: interface down, count"
scalar scenario.client[0].ppp[1].ppp packetDropInterfaceDown:sum(packetBytes) 0
attr interpolationmode none
attr source packetDropReasonIsInterfaceDown(packetDropped)
attr title "packet drop: interface down, sum(packetBytes)"
scalar scenario.client[0].ppp[1].ppp rxPkOk:count 143
attr interpolationmode none
attr source rxPkOk
attr title "packets received OK, count"
scalar scenario.client[0].ppp[1].ppp rxPkOk:sum(packetBytes) 6799
attr interpolationmode none
attr source rxPkOk
attr title "packets received OK, sum(packetBytes)"
scalar scenario.client[0].ppp[1].ppp transmissionState:timeavg 2.4742942861039e-006
attr interpolationmode sample-hold
attr source transmissionStateChanged
attr title "tx state, timeavg"
scalar scenario.client[0].ppp[2].ppp.queue packetPopped:count 145
attr interpolationmode none
attr title "packet popped, count"
scalar scenario.client[0].ppp[2].ppp.queue packetPopped:sum(packetBytes) 5884
attr interpolationmode none
attr title "packet popped, sum(packetBytes)"
statistic scenario.client[0].ppp[2].ppp.queue queueingTime:histogram
field count 145
field mean 6.7420689655172e-005
field stddev 0.00014473806173018
field min 0
field max 0.000376
field sum 0.009776
field sqrsum 3.675776e-006
attr interpolationmode none
attr source queueingTime(packetPopped)
attr title "queueing times, histogram"
attr unit s
bin	-inf	0
bin	0	119
bin	1e-005	0
bin	2e-005	0
bin	3e-005	0
bin	4e-005	0
bin	5e-005	0
bin	6e-005	0
bin	7e-005	0
bin	8e-005	0
bin	9e-005	0
bin	0.0001	0
bin	0.00011	0
bin	0.00012	0
bin	0.00013	0
bin	0.00014	0
bin	0.00015	0
bin	0.00016	0
bin	0.00017	0
bin	0.00018	0
bin	0.00019	0
bin	0.0002	0
bin	0.00021	0
bin	0.00022	0
bin	0.00023	0
bin	0.00024	0
bin	0.00025	0
bin	0.00026	0
bin	0.00027	0
bin	0.00028	0
bin	0.00029	0
bin	0.0003	0
bin	0.00031	0
bin	0.00032	0
bin	0.00033	0
bin	0.00034	0
bin	0.00035	0
bin	0.00036	0
bin	0.00037	26
bin	0.00038	0
bin	0.00039	0
bin	0.0004	0
bin	0.00041	0
bin	0.00042	0
bin	0.00043	0
bin	0.00044	0
bin	0.00045	0
bin	0.00046	0
bin	0.00047	0
scalar scenario.client[0].ppp[2].ppp.queue queueLength:max 1
attr interpolationmode sample-hold
attr source "count(packetPushed) - count(packetPopped) - count(packetRemoved) - count(packetDropped)"
attr title "queue length, max"
scalar scenario.client[0].ppp[2].ppp.queue queueLength:timeavg 4.4440982699958e-007
attr interpolationmode sample-hold
attr source "count(packetPushed) - count(packetPopped) - count(packetRemoved) - count(packetDropped)"
attr title "queue length, timeavg"
scalar scenario.client[0].ppp[2].ppp.queue packetPushed:count 145
attr interpolationmode none
attr title "packet pushed, count"
scalar scenario.client[0].ppp[2].ppp.queue packetPushed:sum(packetBytes) 5884
attr interpolationmode none
attr title "packet pushed, sum(packetBytes)"
scalar scenario.client[0].ppp[2].ppp.queue packetDropQueueOverflow:count 0
attr interpolationmode none
attr source packetDropReasonIsQueueOverflow(packetDropped)
attr title "packet drops: queue overflow, count"
scalar scenario.client[0].ppp[2].ppp.queue packetDropQueueOverflow:sum(packetBytes) 0
attr interpolationmode none
attr source packetDropReasonIsQueueOverflow(packetDropped)
attr title "packet drops: queue overflow, sum(packetBytes)"
scalar scenario.client[0].ppp[2].ppp.queue packetRemoved:count 0
attr interpolationmode none
attr title "packets removed, count"
scalar scenario.client[0].ppp[2].ppp.queue packetRemoved:sum(packetBytes) 0
attr interpolationmode none
attr title "packets removed, sum(packetBytes)"
scalar scenario.client[0].ppp[2].ppp txPk:count 145
attr interpolationmode none
attr source packetSentToLower
attr title "packets transmitted, count"
scalar scenario.client[0].ppp[2].ppp txPk:sum(packetBytes) 6899
attr interpolationmode none
attr source packetSentToLower
attr title "packets transmitted, sum(packetBytes)"
scalar scenario.client[0].ppp[2].ppp rcvdPkFromHl:count 145
attr interpolationmode none
attr source packetReceivedFromUpper
attr title "packets received from higher layer, count"
scalar scenario.client[0].ppp[2].ppp rcvdPkFromHl:sum(packetBytes) 5884
attr interpolationmode none
attr source packetReceivedFromUpper
attr title "packets received from higher layer, sum(packetBytes)"
scalar scenario.client[0].ppp[2].ppp passedUpPk:count 145
attr interpolationmode none
attr source packetSentToUpper
attr title "packets passed to higher layer, count"
scalar scenario.client[0].ppp[2].ppp passedUpPk:sum(packetBytes) 5879
attr interpolationmode none
attr source packetSentToUpper
attr title "packets passed to higher layer, sum(packetBytes)"
scalar scenario.client[0].ppp[2].ppp packetDropIncorrectlyReceived:count 0
attr interpolationmode none
attr source packetDropReasonIsIncorrectlyReceived(packetDropped)
attr title "packet drop: incorrectly received, count"
scalar scenario.client[0].ppp[2].ppp packetDropIncorrectlyReceived:sum(packetBytes) 0
attr interpolationmode none
attr source packetDropReasonIsIncorrectlyReceived(packetDropped)
attr title "packet drop: incorrectly received, sum(packetBytes)"
scalar scenario.client[0].ppp[2].ppp packetDropInterfaceDown:count 0
attr interpolationmode none
attr source packetDropReasonIsInterfaceDown(packetDropped)
attr title "packet drop: interface down, count"
scalar scenario.client[0].ppp[2].ppp packetDropInterfaceDown:sum(packetBytes) 0
attr interpolationmode none
attr source packetDropReasonIsInterfaceDown(packetDropped)
attr title "packet drop: interface down, sum(packetBytes)"
scalar scenario.client[0].ppp[2].ppp rxPkOk:count 145
attr interpolationmode none
attr source rxPkOk
attr title "packets received OK, count"
scalar scenario.client[0].ppp[2].ppp rxPkOk:sum(packetBytes) 6894
attr interpolationmode none
attr source rxPkOk
attr title "packets received OK, sum(packetBytes)"
scalar scenario.client[0].ppp[2].ppp transmissionState:timeavg 2.5088413109687e-006
attr interpolationmode sample-hold
attr source transmissionStateChanged
attr title "tx state, timeavg"
scalar scenario.client[0].ppp[3].ppp.queue packetPopped:count 142
attr interpolationmode none
attr title "packet popped, count"
scalar scenario.client[0].ppp[3].ppp.queue packetPopped:sum(packetBytes) 5763
attr interpolationmode none
attr title "packet popped, sum(packetBytes)"
statistic scenario.client[0].ppp[3].ppp.queue queueingTime:histogram
field count 142
field mean 6.8845070422535e-005
field stddev 0.00014593174814745
field min 0
field max 0.000376
field sum 0.009776
field sqrsum 3.675776e-006
attr interpolationmode none
attr source queueingTime(packetPopped)
attr title "queueing times, histogram"
attr unit s
bin	-inf	0
bin	0	116
bin	1e-005	0
bin	2e-005	0
bin	3e-005	0
bin	4e-005	0
bin	5e-005	0
bin	6e-005	0
bin	7e-005	0
bin	8e-005	0
bin	9e-005	0
bin	0.0001	0
bin	0.00011	0
bin	0.00012	0
bin	0.00013	0
bin	0.00014	0
bin	0.00015	0
bin	0.00016	0
bin	0.00017	0
bin	0.00018	0
bin	0.00019	0
bin	0.0002	0
bin	0.00021	0
bin	0.00022	0
bin	0.00023	0
bin	0.00024	0
bin	0.00025	0
bin	0.00026	0
bin	0.00027	0
bin	0.00028	0
bin	0.00029	0
bin	0.0003	0
bin	0.00031	0
bin	0.00032	0
bin	0.00033	0
bin	0.00034	0
bin	0.00035	0
bin	0.00036	0
bin	0.00037	26
bin	0.00038	0
bin	0.00039	0
bin	0.0004	0
bin	0.00041	0
bin	0.00042	0
bin	0.00043	0
bin	0.00044	0
bin	0.00045	0
bin	0.00046	0
bin	0.00047	0
scalar scenario.client[0].ppp[3].ppp.queue queueLength:max 1
attr interpolationmode sample-hold
attr source "count(packetPushed) - count(packetPopped) - count(packetRemoved) - count(packetDropped)"
attr title "queue length, max"
scalar scenario.client[0].ppp[3].ppp.queue queueLength:timeavg 4.444163814714e-007
attr interpolationmode sample-hold
attr source "count(packetPushed) - count(packetPopped) - count(packetRemoved) - count(packetDropped)"
attr title "queue length, timeavg"
scalar scenario.client[0].ppp[3].ppp.queue packetPushed:count 142
attr interpolationmode none
attr title "packet pushed, count"
scalar scenario.client[0].ppp[3].ppp.queue packetPushed:sum(packetBytes) 5763
attr interpolationmode none
attr title "packet pushed, sum(packetBytes)"
scalar scenario.client[0].ppp[3].ppp.queue packetDropQueueOverflow:count 0
attr interpolationmode none
attr source packetDropReasonIsQueueOverflow(packetDropped)
attr title "packet drops: queue overflow, count"
scalar scenario.client[0].ppp[3].ppp.queue packetDropQueueOverflow:sum(packetBytes) 0
attr interpolationmode none
attr source packetDropReasonIsQueueOverflow(packetDropped)
attr title "packet drops: queue overflow, sum(packetBytes)"
scalar scenario.client[0].ppp[3].ppp.queue packetRemoved:count 0
attr interpolationmode none
attr title "packets removed, count"
scalar scenario.client[0].ppp[3].ppp.queue packetRemoved:sum(packetBytes) 0
attr interpolationmode none
attr title "packets removed, sum(packetBytes)"
scalar scenario.client[0].ppp[3].ppp txPk:count 142
attr interpolationmode none
attr source packetSentToLower
attr title "packets transmitted, count"
scalar scenario.client[0].ppp[3].ppp txPk:sum(packetBytes) 6757
attr interpolationmode none
attr source packetSentToLower
attr title "packets transmitted, sum(packetBytes)"
scalar scenario.client[0].ppp[3].ppp rcvdPkFromHl:count 142
attr interpolationmode none
attr source packetReceivedFromUpper
attr title "packets received from higher layer, count"
scalar scenario.client[0].ppp[3].ppp rcvdPkFromHl:sum(packetBytes) 5763
attr interpolationmode none
attr source packetReceivedFromUpper
attr title "packets received from higher layer, sum(packetBytes)"
scalar scenario.client[0].ppp[3].ppp passedUpPk:count 142
attr interpolationmode none
attr source packetSentToUpper
attr title "packets passed to higher layer, count"
scalar scenario.client[0].ppp[3].ppp passedUpPk:sum(packetBytes) 5757
attr interpolationmode none
attr source packetSentToUpper
attr title "packets passed to higher layer, sum(packetBytes)"
scalar scenario.client[0].ppp[3].ppp packetDropIncorrectlyReceived:count 0
attr interpolationmode none
attr source packetDropReasonIsIncorrectlyReceived(packetDropped)
attr title "packet drop: incorrectly received, count"
scalar scenario.client[0].ppp[3].ppp packetDropIncorrectlyReceived:sum(packetBytes) 0
attr interpolationmode none
attr source packetDropReasonIsIncorrectlyReceived(packetDropped)
attr title "packet drop: incorrectly received, sum(packetBytes)"
scalar scenario.client[0].ppp[3].ppp packetDropInterfaceDown:count 0
attr interpolationmode none
attr source packetDropReasonIsInterfaceDown(packetDropped)
attr title "packet drop: interface down, count"
scalar scenario.client[0].ppp[3].ppp packetDropInterfaceDown:sum(packetBytes) 0
attr interpolationmode none
attr source packetDropReasonIsInterfaceDown(packetDropped)
attr title "packet drop: interface down, sum(packetBytes)"
scalar scenario.client[0].ppp[3].ppp rxPkOk:count 142
attr interpolationmode none
attr source rxPkOk
attr title "packets received OK, count"
scalar scenario.client[0].ppp[3].ppp rxPkOk:sum(packetBytes) 6751
attr interpolationmode none
attr source rxPkOk
attr title "packets received OK, sum(packetBytes)"
scalar scenario.client[0].ppp[3].ppp transmissionState:timeavg 2.4572026001182e-006
attr interpolationmode sample-hold
attr source transmissionStateChanged
attr title "tx state, timeavg"
scalar scenario.client[0].ppp[4].ppp.queue packetPopped:count 119
attr interpolationmode none
attr title "packet popped, count"
scalar scenario.client[0].ppp[4].ppp.queue packetPopped:sum(packetBytes) 4831
attr interpolationmode none
attr title "packet popped, sum(packetBytes)"
statistic scenario.client[0].ppp[4].ppp.queue queueingTime:histogram
field count 119
field mean 7.5831932773109e-005
field stddev 0.00015150982064314
field min 0
field max 0.000376
field sum 0.009024
field sqrsum 3.393024e-006
attr interpolationmode none
attr source queueingTime(packetPopped)
attr title "queueing times, histogram"
attr unit s
bin	-inf	0
bin	0	95
bin	1e-005	0
bin	2e-005	0
bin	3e-005	0
bin	4e-005	0
bin	5e-005	0
bin	6e-005	0
bin	7e-005	0
bin	8e-005	0
bin	9e-005	0
bin	0.0001	0
bin	0.00011	0
bin	0.00012	0
bin	0.00013	0
bin	0.00014	0
bin	0.00015	0
bin	0.00016	0
bin	0.00017	0
bin	0.00018	0
bin	0.00019	0
bin	0.0002	0
bin	0.00021	0
bin	0.00022	0
bin	0.00023	0
bin	0.00024	0
bin	0.00025	0
bin	0.00026	0
bin	0.00027	0
bin	0.00028	0
bin	0.00029	0
bin	0.0003	0
bin	0.00031	0
bin	0.00032	0
bin	0.00033	0
bin	0.00034	0
bin	0.00035	0
bin	0.00036	0
bin	0.00037	24
bin	0.00038	0
bin	0.00039	0
bin	0.0004	0
bin	0.00041	0
bin	0.00042	0
bin	0.00043	0
bin	0.00044	0
bin	0.00045	0
bin	0.00046	0
bin	0.00047	0
scalar scenario.client[0].ppp[4].ppp.queue queueLength:max 1
attr interpolationmode sample-hold
attr source "count(packetPushed) - count(packetPopped) - count(packetRemoved) - count(packetDropped)"
attr title "queue length, max"
scalar scenario.client[0].ppp[4].ppp.queue queueLength:timeavg 4.1021912776066e-007
attr interpolationmode sample-hold
attr source "count(packetPushed) - count(packetPopped) - count(packetRemoved) - count(packetDropped)"
attr title "queue length, timeavg"
scalar scenario.client[0].ppp[4].ppp.queue packetPushed:count 119
attr interpolationmode none
attr title "packet pushed, count"
scalar scenario.client[0].ppp[4].ppp.queue packetPushed:sum(packetBytes) 4831
attr interpolationmode none
attr title "packet pushed, sum(packetBytes)"
scalar scenario.client[0].ppp[4].ppp.queue packetDropQueueOverflow:count 0
attr interpolationmode none
attr source packetDropReasonIsQueueOverflow(packetDropped)
attr title "packet drops: queue overflow, count"
scalar scenario.client[0].ppp[4].ppp.queue packetDropQueueOverflow:sum(packetBytes) 0
attr interpolationmode none
attr source packetDropReasonIsQueueOverflow(packetDropped)
attr title "packet drops: queue overflow, sum(packetBytes)"
scalar scenario.client[0].ppp[4].ppp.queue packetRemoved:count 0
attr interpolationmode none
attr title "packets removed, count"
scalar scenario.client[0].ppp[4].ppp.queue packetRemoved:sum(packetBytes) 0
attr interpolationmode none
attr title "packets removed, sum(packetBytes)"
scalar scenario.client[0].ppp[4].ppp txPk:count 119
attr interpolationmode none
attr source packetSentToLower
attr title "packets transmitted, count"
scalar scenario.client[0].ppp[4].ppp txPk:sum(packetBytes) 5664
attr interpolationmode none
attr source packetSentToLower
attr title "packets transmitted, sum(packetBytes)"
scalar scenario.client[0].ppp[4].ppp rcvdPkFromHl:count 119
attr interpolationmode none
attr source packetReceivedFromUpper
attr title "packets received from higher layer, count"
scalar scenario.client[0].ppp[4].ppp rcvdPkFromHl:sum(packetBytes) 4831
attr interpolationmode none
attr source packetReceivedFromUpper
attr title "packets received from higher layer, sum(packetBytes)"
scalar scenario.client[0].ppp[4].ppp passedUpPk:count 119
attr interpolationmode none
attr source packetSentToUpper
attr title "packets passed to higher layer, count"
scalar scenario.client[0].ppp[4].ppp passedUpPk:sum(packetBytes) 4825
attr interpolationmode none
attr source packetSentToUpper
attr title "packets passed to higher layer, sum(packetBytes)"
scalar scenario.client[0].ppp[4].ppp packetDropIncorrectlyReceived:count 0
attr interpolationmode none
attr source packetDropReasonIsIncorrectlyReceived(packetDropped)
attr title "packet drop: incorrectly received, count"
scalar scenario.client[0].ppp[4].ppp packetDropIncorrectlyReceived:sum(packetBytes) 0
attr interpolationmode none
attr source packetDropReasonIsIncorrectlyReceived(packetDropped)
attr title "packet drop: incorrectly received, sum(packetBytes)"
scalar scenario.client[0].ppp[4].ppp packetDropInterfaceDown:count 0
attr interpolationmode none
attr source packetDropReasonIsInterfaceDown(packetDropped)
attr title "packet drop: interface down, count"
scalar scenario.client[0].ppp[4].ppp packetDropInterfaceDown:sum(packetBytes) 0
attr interpolationmode none
attr source packetDropReasonIsInterfaceDown(packetDropped)
attr title "packet drop: interface down, sum(packetBytes)"
scalar scenario.client[0].ppp[4].ppp rxPkOk:count 119
attr interpolationmode none
attr source rxPkOk
attr title "packets received OK, count"
scalar scenario.client[0].ppp[4].ppp rxPkOk:sum(packetBytes) 5658
attr interpolationmode none
attr source rxPkOk
attr title "packets received OK, sum(packetBytes)"
scalar scenario.client[0].ppp[4].ppp transmissionState:timeavg 2.0597299877267e-006
attr interpolationmode sample-hold
attr source transmissionStateChanged
attr title "tx state, timeavg"
scalar scenario.client[0].ppp[5].ppp.queue packetPopped:count 84
attr interpolationmode none
attr title "packet popped, count"
scalar scenario.client[0].ppp[5].ppp.queue packetPopped:sum(packetBytes) 3411
attr interpolationmode none
attr title "packet popped, sum(packetBytes)"
statistic scenario.client[0].ppp[5].ppp.queue queueingTime:histogram
field count 84
field mean 8.0571428571429e-005
field stddev 0.00015520916984107
field min 0
field max 0.000376
field sum 0.006768
field sqrsum 2.544768e-006
attr interpolationmode none
attr source queueingTime(packetPopped)
attr title "queueing times, histogram"
attr unit s
bin	-inf	0
bin	0	66
bin	1e-005	0
bin	2e-005	0
bin	3e-005	0
bin	4e-005	0
bin	5e-005	0
bin	6e-005	0
bin	7e-005	0
bin	8e-005	0
bin	9e-005	0
bin	0.0001	0
bin	0.00011	0
bin	0.00012	0
bin	0.00013	0
bin	0.00014	0
bin	0.00015	0
bin	0.00016	0
bin	0.00017	0
bin	0.00018	0
bin	0.00019	0
bin	0.0002	0
bin	0.00021	0
bin	0.00022	0
bin	0.00023	0
bin	0.00024	0
bin	0.00025	0
bin	0.00026	0
bin	0.00027	0
bin	0.00028	0
bin	0.00029	0
bin	0.0003	0
bin	0.00031	0
bin	0.00032	0
bin	0.00033	0
bin	0.00034	0
bin	0.00035	0
bin	0.00036	0
bin	0.00037	18
bin	0.00038	0
bin	0.00039	0
bin	0.0004	0
bin	0.00041	0
bin	0.00042	0
bin	0.00043	0
bin	0.00044	0
bin	0.00045	0
bin	0.00046	0
bin	0.00047	0
scalar scenario.client[0].ppp[5].ppp.queue queueLength:max 1
attr interpolationmode sample-hold
attr source "count(packetPushed) - count(packetPopped) - count(packetRemoved) - count(packetDropped)"
attr title "queue length, max"
scalar scenario.client[0].ppp[5].ppp.queue queueLength:timeavg 3.0770630958842e-007
attr interpolationmode sample-hold
attr source "count(packetPushed) - count(packetPopped) - count(packetRemoved) - count(packetDropped)"
attr title "queue length, timeavg"
scalar scenario.client[0].ppp[5].ppp.queue packetPushed:count 84
attr interpolationmode none
attr title "packet pushed, count"
scalar scenario.client[0].ppp[5].ppp.queue packetPushed:sum(packetBytes) 3411
attr interpolationmode none
attr title "packet pushed, sum(packetBytes)"
scalar scenario.client[0].ppp[5].ppp.queue packetDropQueueOverflow:count 0
attr interpolationmode none
attr source packetDropReasonIsQueueOverflow(packetDropped)
attr title "packet drops: queue overflow, count"
scalar scenario.client[0].ppp[5].ppp.queue packetDropQueueOverflow:sum(packetBytes) 0
attr interpolationmode none
attr source packetDropReasonIsQueueOverflow(packetDropped)
attr title "packet drops: queue overflow, sum(packetBytes)"
scalar scenario.client[0].ppp[5].ppp.queue packetRemoved:count 0
attr interpolationmode none
attr title "packets removed, count"
scalar scenario.client[0].ppp[5].ppp.queue packetRemoved:sum(packetBytes) 0
attr interpolationmode none
attr title "packets removed, sum(packetBytes)"
scalar scenario.client[0].ppp[5].ppp txPk:count 84
attr interpolationmode none
attr source packetSentToLower
attr title "packets transmitted, count"
scalar scenario.client[0].ppp[5].ppp txPk:sum(packetBytes) 3999
attr interpolationmode none
attr source packetSentToLower
attr title "packets transmitted, sum(packetBytes)"
scalar scenario.client[0].ppp[5].ppp rcvdPkFromHl:count 84
attr interpolationmode none
attr source packetReceivedFromUpper
attr title "packets received from higher layer, count"
scalar scenario.client[0].ppp[5].ppp rcvdPkFromHl:sum(packetBytes) 3411
attr interpolationmode none
attr source packetReceivedFromUpper
attr title "packets received from higher layer, sum(packetBytes)"
scalar scenario.client[0].ppp[5].ppp passedUpPk:count 84
attr interpolationmode none
attr source packetSentToUpper
attr title "packets passed to higher layer, count"
scalar scenario.client[0].ppp[5].ppp passedUpPk:sum(packetBytes) 3408
attr interpolationmode none
attr source packetSentToUpper
attr title "packets passed to higher layer, sum(packetBytes)"
scalar scenario.client[0].ppp[5].ppp packetDropIncorrectlyReceived:count 0
attr interpolationmode none
attr source packetDropReasonIsIncorrectlyReceived(packetDropped)
attr title "packet drop: incorrectly received, count"
scalar scenario.client[0].ppp[5].ppp packetDropIncorrectlyReceived:sum(packetBytes) 0
attr interpolationmode none
attr source packetDropReasonIsIncorrectlyReceived(packetDropped)
attr title "packet drop: incorrectly received, sum(packetBytes)"
scalar scenario.client[0].ppp[5].ppp packetDropInterfaceDown:count 0
attr interpolationmode none
attr source packetDropReasonIsInterfaceDown(packetDropped)
attr title "packet drop: interface down, count"
scalar scenario.client[0].ppp[5].ppp packetDropInterfaceDown:sum(packetBytes) 0
attr interpolationmode none
attr source packetDropReasonIsInterfaceDown(packetDropped)
attr title "packet drop: interface down, sum(packetBytes)"
scalar scenario.client[0].ppp[5].ppp rxPkOk:count 84
attr interpolationmode none
attr source rxPkOk
attr title "packets received OK, count"
scalar scenario.client[0].ppp[5].ppp rxPkOk:sum(packetBytes) 3996
attr interpolationmode none
attr source rxPkOk
attr title "packets received OK, sum(packetBytes)"
scalar scenario.client[0].ppp[5].ppp transmissionState:timeavg 1.45424792036e-006
attr interpolationmode sample-hold
attr source transmissionStateChanged
attr title "tx state, timeavg"
scalar scenario.client[0].ppp[6].ppp.queue packetPopped:count 82
attr interpolationmode none
attr title "packet popped, count"
scalar scenario.client[0].ppp[6].ppp.queue packetPopped:sum(packetBytes) 3330
attr interpolationmode none
attr title "packet popped, sum(packetBytes)"
statistic scenario.client[0].ppp[6].ppp.queue queueingTime:histogram
field count 82
field mean 7.7951219512195e-005
field stddev 0.00015336263024779
field min 0
field max 0.000376
field sum 0.006392
field sqrsum 2.403392e-006
attr interpolationmode none
attr source queueingTime(packetPopped)
attr title "queueing times, histogram"
attr unit s
bin	-inf	0
bin	0	65
bin	1e-005	0
bin	2e-005	0
bin	3e-005	0
bin	4e-005	0
bin	5e-005	0
bin	6e-005	0
bin	7e-005	0
bin	8e-005	0
bin	9e-005	0
bin	0.0001	0
bin	0.00011	0
bin	0.00012	0
bin	0.00013	0
bin	0.00014	0
bin	0.00015	0
bin	0.00016	0
bin	0.00017	0
bin	0.00018	0
bin	0.00019	0
bin	0.0002	0
bin	0.00021	0
bin	0.00022	0
bin	0.00023	0
bin	0.00024	0
bin	0.00025	0
bin	0.00026	0
bin	0.00027	0
bin	0.00028	0
bin	0.00029	0
bin	0.0003	0
bin	0.00031	0
bin	0.00032	0
bin	0.00033	0
bin	0.00034	0
bin	0.00035	0
bin	0.00036	0
bin	0.00037	17
bin	0.00038	0
bin	0.00039	0
bin	0.0004	0
bin	0.00041	0
bin	0.00042	0
bin	0.00043	0
bin	0.00044	0
bin	0.00045	0
bin	0.00046	0
bin	0.00047	0
scalar scenario.client[0].ppp[6].ppp.queue queueLength:max 1
attr interpolationmode sample-hold
attr source "count(packetPushed) - count(packetPopped) - count(packetRemoved) - count(packetDropped)"
attr title "queue length, max"
scalar scenario.client[0].ppp[6].ppp.queue queueLength:timeavg 2.9069081194903e-007
attr interpolationmode sample-hold
attr source "count(packetPushed) - count(packetPopped) - count(packetRemoved) - count(packetDropped)"
attr title "queue length, timeavg"
scalar scenario.client[0].ppp[6].ppp.queue packetPushed:count 82
attr interpolationmode none
attr title "packet pushed, count"
scalar scenario.client[0].ppp[6].ppp.queue packetPushed:sum(packetBytes) 3330
attr interpolationmode none
attr title "packet pushed, sum(packetBytes)"
scalar scenario.client[0].ppp[6].ppp.queue packetDropQueueOverflow:count 0
attr interpolationmode none
attr source packetDropReasonIsQueueOverflow(packetDropped)
attr title "packet drops: queue overflow, count"
scalar scenario.client[0].ppp[6].ppp.queue packetDropQueueOverflow:sum(packetBytes) 0
attr interpolationmode none
attr source packetDropReasonIsQueueOverflow(packetDropped)
attr title "packet drops: queue overflow, sum(packetBytes)"
scalar scenario.client[0].ppp[6].ppp.queue packetRemoved:count 0
attr interpolationmode none
attr title "packets removed, count"
scalar scenario.client[0].ppp[6].ppp.queue packetRemoved:sum(packetBytes) 0
attr interpolationmode none
attr title "packets removed, sum(packetBytes)"
scalar scenario.client[0].ppp[6].ppp txPk:count 82
attr interpolationmode none
attr source packetSentToLower
attr title "packets transmitted, count"
scalar scenario.client[0].ppp[6].ppp txPk:sum(packetBytes) 3904
attr interpolationmode none
attr source packetSentToLower
attr title "packets transmitted, sum(packetBytes)"
scalar scenario.client[0].ppp[6].ppp rcvdPkFromHl:count 82
attr interpolationmode none
attr source packetReceivedFromUpper
attr title "packets received from higher layer, count"
scalar scenario.client[0].ppp[6].ppp rcvdPkFromHl:sum(packetBytes) 3330
attr interpolationmode none
attr source packetReceivedFromUpper
attr title "packets received from higher layer, sum(packetBytes)"
scalar scenario.client[0].ppp[6].ppp passedUpPk:count 82
attr interpolationmode none
attr source packetSentToUpper
attr title "packets passed to higher layer, count"
scalar scenario.client[0].ppp[6].ppp passedUpPk:sum(packetBytes) 3327
attr interpolationmode none
attr source packetSentToUpper
attr title "packets passed to higher layer, sum(packetBytes)"
scalar scenario.client[0].ppp[6].ppp packetDropIncorrectlyReceived:count 0
attr interpolationmode none
attr source packetDropReasonIsIncorrectlyReceived(packetDropped)
attr title "packet drop: incorrectly received, count"
scalar scenario.client[0].ppp[6].ppp packetDropIncorrectlyReceived:sum(packetBytes) 0
attr interpolationmode none
attr source packetDropReasonIsIncorrectlyReceived(packetDropped)
attr title "packet drop: incorrectly received, sum(packetBytes)"
scalar scenario.client[0].ppp[6].ppp packetDropInterfaceDown:count 0
attr interpolationmode none
attr source packetDropReasonIsInterfaceDown(packetDropped)
attr title "packet drop: interface down, count"
scalar scenario.client[0].ppp[6].ppp packetDropInterfaceDown:sum(packetBytes) 0
attr interpolationmode none
attr source packetDropReasonIsInterfaceDown(packetDropped)
attr title "packet drop: interface down, sum(packetBytes)"
scalar scenario.client[0].ppp[6].ppp rxPkOk:count 82
attr interpolationmode none
attr source rxPkOk
attr title "packets received OK, count"
scalar scenario.client[0].ppp[6].ppp rxPkOk:sum(packetBytes) 3901
attr interpolationmode none
attr source rxPkOk
attr title "packets received OK, sum(packetBytes)"
scalar scenario.client[0].ppp[6].ppp transmissionState:timeavg 1.4197008954952e-006
attr interpolationmode sample-hold
attr source transmissionStateChanged
attr title "tx state, timeavg"
scalar scenario.client[0].ipv4.ip packetDropAddressResolutionFailed:count 0
attr interpolationmode none
attr source packetDropReasonIsAddressResolutionFailed(packetDropped)
attr title "packet drop: address resolution failed, count"
scalar scenario.client[0].ipv4.ip packetDropAddressResolutionFailed:sum(packetBytes) 0
attr interpolationmode none
attr source packetDropReasonIsAddressResolutionFailed(packetDropped)
attr title "packet drop: address resolution failed, sum(packetBytes)"
scalar scenario.client[0].ipv4.ip packetDropHopLimitReached:count 0
attr interpolationmode none
attr source packetDropReasonIsHopLimitReached(packetDropped)
attr title "packet drop: hop limit reached, count"
scalar scenario.client[0].ipv4.ip packetDropHopLimitReached:sum(packetBytes) 0
attr interpolationmode none
attr source packetDropReasonIsHopLimitReached(packetDropped)
attr title "packet drop: hop limit reached, sum(packetBytes)"
scalar scenario.client[0].ipv4.ip packetDropForwardingDisabled:count 0
attr interpolationmode none
attr source packetDropReasonIsForwardingDisabled(packetDropped)
attr title "packet drop: forwarding disabled, count"
scalar scenario.client[0].ipv4.ip packetDropForwardingDisabled:sum(packetBytes) 0
attr interpolationmode none
attr source packetDropReasonIsForwardingDisabled(packetDropped)
attr title "packet drop: forwarding disabled, sum(packetBytes)"
scalar scenario.client[0].ipv4.ip packetDropNoInterfaceFound:count 0
attr interpolationmode none
attr source packetDropReasonIsNoInterfaceFound(packetDropped)
attr title "packet drop: no interface found, count"
scalar scenario.client[0].ipv4.ip packetDropNoInterfaceFound:sum(packetBytes) 0
attr interpolationmode none
attr source packetDropReasonIsNoInterfaceFound(packetDropped)
attr title "packet drop: no interface found, sum(packetBytes)"
scalar scenario.client[0].ipv4.ip packetDropNoRouteFound:count 0
attr interpolationmode none
attr source packetDropReasonIsNoRouteFound(packetDropped)
attr title "packet drop: no route found, count"
scalar scenario.client[0].ipv4.ip packetDropNoRouteFound:sum(packetBytes) 0
attr interpolationmode none
attr source packetDropReasonIsNoRouteFound(packetDropped)
attr title "packet drop: no route found, sum(packetBytes)"
scalar scenario.client[0].ipv4.ip packetDropUndefined:count 0
attr interpolationmode none
attr source packetDropReasonIsUndefined(packetDropped)
attr title "packet drop: undefined, count"
scalar scenario.client[0].ipv4.ip packetDropUndefined:sum(packetBytes) 0
attr interpolationmode none
attr source packetDropReasonIsUndefined(packetDropped)
attr title "packet drop: undefined, sum(packetBytes)"
scalar scenario.client[0].ipv4.arp arpReplySent:count 0
attr source arpReplySent
attr title "ARP replies sent, count"
scalar scenario.client[0].ipv4.arp arpReplySent:sum(packetBytes) 0
attr source arpReplySent
attr title "ARP replies sent, sum(packetBytes)"
scalar scenario.client[0].ipv4.arp arpRequestSent:count 0
attr source arpRequestSent
attr title "ARP request sent, count"
scalar scenario.client[0].ipv4.arp arpRequestSent:sum(packetBytes) 0
attr source arpRequestSent
attr title "ARP request sent, sum(packetBytes)"
scalar scenario.client[0].ipv4.arp arpResolutionFailed:count 0
attr title "ARP failed resolutions, count"
scalar scenario.client[0].ipv4.arp arpResolutionCompleted:count 0
attr title "ARP completed resolutions, count"
scalar scenario.client[0].ipv4.arp arpResolutionInitiated:count 0
attr title "ARP initiated resolutions, count"
scalar scenario.client[0].udp packetReceived:count 0
attr interpolationmode none
attr source packetReceived
attr title "packets received, count"
scalar scenario.client[0].udp packetReceived:sum(packetBytes) 0
attr interpolationmode none
attr source packetReceived
attr title "packets received, sum(packetBytes)"
scalar scenario.client[0].udp packetSent:count 0
attr interpolationmode none
attr source packetSent
attr title "packets sent, count"
scalar scenario.client[0].udp packetSent:sum(packetBytes) 0
attr interpolationmode none
attr source packetSent
attr title "packets sent, sum(packetBytes)"
scalar scenario.client[0].udp passedUpPk:count 0
attr interpolationmode none
attr source packetSentToUpper
attr title "packets passed up, count"
scalar scenario.client[0].udp droppedPkWrongPort:count 0
attr interpolationmode none
attr source packetDropReasonIsNoPortFound(packetDropped)
attr title "packets dropped (wrong port), count"
scalar scenario.client[0].udp droppedPkBadChecksum:count 0
attr interpolationmode none
attr source packetDropReasonIsIncorrectlyReceived(packetDropped)
attr title "packets dropped (checksum error), count"
scalar scenario.client[1].lo[0].lo rcvdPkFromHl:count 0
attr interpolationmode none
attr source packetReceivedFromUpper
attr title "packets received from higher layer, count"
scalar scenario.client[1].lo[0].lo rcvdPkFromHl:sum(packetBytes) 0
attr interpolationmode none
attr source packetReceivedFromUpper
attr title "packets received from higher layer, sum(packetBytes)"
scalar scenario.client[1].lo[0].lo passedUpPk:count 0
attr interpolationmode none
attr source packetSentToUpper
attr title "packets passed to higher layer, count"
scalar scenario.client[1].lo[0].lo passedUpPk:sum(packetBytes) 0
attr interpolationmode none
attr source packetSentToUpper
attr title "packets passed to higher layer, sum(packetBytes)"
scalar scenario.client[1].ppp[0].ppp.queue packetPopped:count 148
attr interpolationmode none
attr title "packet popped, count"
scalar scenario.client[1].ppp[0].ppp.queue packetPopped:sum(packetBytes) 6005
attr interpolationmode none
attr title "packet popped, sum(packetBytes)"
statistic scenario.client[1].ppp[0].ppp.queue queueingTime:histogram
field count 148
field mean 6.6054054054054e-005
field stddev 0.00014357039960701
field min 0
field max 0.000376
field sum 0.009776
field sqrsum 3.675776e-006
attr interpolationmode none
attr source queueingTime(packetPopped)
attr title "queueing times, histogram"
attr unit s
bin	-inf	0
bin	0	122
bin	1e-005	0
bin	2e-005	0
bin	3e-005	0
bin	4e-005	0
bin	5e-005	0
bin	6e-005	0
bin	7e-005	0
bin	8e-005	0
bin	9e-005	0
bin	0.0001	0
bin	0.00011	0
bin	0.00012	0
bin	0.00013	0
bin	0.00014	0
bin	0.00015	0
bin	0.00016	0
bin	0.00017	0
bin	0.00018	0
bin	0.00019	0
bin	0.0002	0
bin	0.00021	0
bin	0.00022	0
bin	0.00023	0
bin	0.00024	0
bin	0.00025	0
bin	0.00026	0
bin	0.00027	0
bin	0.00028	0
bin	0.00029	0
bin	0.0003	0
bin	0.00031	0
bin	0.00032	0
bin	0.00033	0
bin	0.00034	0
bin	0.00035	0
bin	0.00036	0
bin	0.00037	26
bin	0.00038	0
bin	0.00039	0
bin	0.0004	0
bin	0.00041	0
bin	0.00042	0
bin	0.00043	0
bin	0.00044	0
bin	0.00045	0
bin	0.00046	0
bin	0.00047	0
scalar scenario.client[1].ppp[0].ppp.queue queueLength:max 1
attr interpolationmode sample-hold
attr source "count(packetPushed) - count(packetPopped) - count(packetRemoved) - count(packetDropped)"
attr title "queue length, max"
scalar scenario.client[1].ppp[0].ppp.queue queueLength:timeavg 4.4439395429278e-007
attr interpolationmode sample-hold
attr source "count(packetPushed) - count(packetPopped) - count(packetRemoved) - count(packetDropped)"
attr title "queue length, timeavg"
scalar scenario.client[1].ppp[0].ppp.queue packetPushed:count 148
attr interpolationmode none
attr title "packet pushed, count"
scalar scenario.client[1].ppp[0].ppp.queue packetPushed:sum(packetBytes) 6005
attr interpolationmode none
attr title "packet pushed, sum(packetBytes)"
scalar scenario.client[1].ppp[0].ppp.queue packetDropQueueOverflow:count 0
attr interpolationmode none
attr source packetDropReasonIsQueueOverflow(packetDropped)
attr title "packet drops: queue overflow, count"
scalar scenario.client[1].ppp[0].ppp.queue packetDropQueueOverflow:sum(packetBytes) 0
attr interpolationmode none
attr source packetDropReasonIsQueueOverflow(packetDropped)
attr title "packet drops: queue overflow, sum(packetBytes)"
scalar scenario.client[1].ppp[0].ppp.queue packetRemoved:count 0
attr interpolationmode none
attr title "packets removed, count"
scalar scenario.client[1].ppp[0].ppp.queue packetRemoved:sum(packetBytes) 0
attr interpolationmode none
attr title "packets removed, sum(packetBytes)"
scalar scenario.client[1].ppp[0].ppp txPk:count 148
attr interpolationmode none
attr source packetSentToLower
attr title "packets transmitted, count"
scalar scenario.client[1].ppp[0].ppp txPk:sum(packetBytes) 7041
attr interpolationmode none
attr source packetSentToLower
attr title "packets transmitted, sum(packetBytes)"
scalar scenario.client[1].ppp[0].ppp rcvdPkFromHl:count 148
attr interpolationmode none
attr source packetReceivedFromUpper
attr title "packets received from higher layer, count"
scalar scenario.client[1].ppp[0].ppp rcvdPkFromHl:sum(packetBytes) 6005
attr interpolationmode none
attr source packetReceivedFromUpper
attr title "packets received from higher layer, sum(packetBytes)"
scalar scenario.client[1].ppp[0].ppp passedUpPk:count 148
attr interpolationmode none
attr source packetSentToUpper
attr title "packets passed to higher layer, count"
scalar scenario.client[1].ppp[0].ppp passedUpPk:sum(packetBytes) 6001
attr interpolationmode none
attr source packetSentToUpper
attr title "packets passed to higher layer, sum(packetBytes)"
scalar scenario.client[1].ppp[0].ppp packetDropIncorrectlyReceived:count 0
attr interpolationmode none
attr source packetDropReasonIsIncorrectlyReceived(packetDropped)
attr title "packet drop: incorrectly received, count"
scalar scenario.client[1].ppp[0].ppp packetDropIncorrectlyReceived:sum(packetBytes) 0
attr interpolationmode none
attr source packetDropReasonIsIncorrectlyReceived(packetDropped)
attr title "packet drop: incorrectly received, sum(packetBytes)"
scalar scenario.client[1].ppp[0].ppp packetDropInterfaceDown:count 0
attr interpolationmode none
attr source packetDropReasonIsInterfaceDown(packetDropped)
attr title "packet drop: interface down, count"
scalar scenario.client[1].ppp[0].ppp packetDropInterfaceDown:sum(packetBytes) 0
attr interpolationmode none
attr source packetDropReasonIsInterfaceDown(packetDropped)
attr title "packet drop: interface down, sum(packetBytes)"
scalar scenario.client[1].ppp[0].ppp rxPkOk:count 148
attr interpolationmode none
attr source rxPkOk
attr title "packets received OK, count"
scalar scenario.client[1].ppp[0].ppp rxPkOk:sum(packetBytes) 7037
attr interpolationmode none
attr source rxPkOk
attr title "packets received OK, sum(packetBytes)"
scalar scenario.client[1].ppp[0].ppp transmissionState:timeavg 2.5604800218192e-006
attr interpolationmode sample-hold
attr source transmissionStateChanged
attr title "tx state, timeavg"
scalar scenario.client[1].ppp[1].ppp.queue packetPopped:count 135
attr interpolationmode none
attr title "packet popped, count"
scalar scenario.client[1].ppp[1].ppp.queue packetPopped:sum(packetBytes) 5481
attr interpolationmode none
attr title "packet popped, sum(packetBytes)"
statistic scenario.client[1].ppp[1].ppp.queue queueingTime:histogram
field count 135
field mean 7.2414814814815e-005
field stddev 0.0001488224618531
field min 0
field max 0.000376
field sum 0.009776
field sqrsum 3.675776e-006
attr interpolationmode none
attr source queueingTime(packetPopped)
attr title "queueing times, histogram"
attr unit s
bin	-inf	0
bin	0	109
bin	1e-005	0
bin	2e-005	0
bin	3e-005	0
bin	4e-005	0
bin	5e-005	0
bin	6e-005	0
bin	7e-005	0
bin	8e-005	0
bin	9e-005	0
bin	0.0001	0
bin	0.00011	0
bin	0.00012	0
bin	0.00013	0
bin	0.00014	0
bin	0.00015	0
bin	0.00016	0
bin	0.00017	0
bin	0.00018	0
bin	0.00019	0
bin	0.0002	0
bin	0.00021	0
bin	0.00022	0
bin	0.00023	0
bin	0.00024	0
bin	0.00025	0
bin	0.00026	0
bin	0.00027	0
bin	0.00028	0
bin	0.00029	0
bin	0.0003	0
bin	0.00031	0
bin	0.00032	0
bin	0.00033	0
bin	0.00034	0
bin	0.00035	0
bin	0.00036	0
bin	0.00037	26
bin	0.00038	0
bin	0.00039	0
bin	0.0004	0
bin	0.00041	0
bin	0.00042	0
bin	0.00043	0
bin	0.00044	0
bin	0.00045	0
bin	0.00046	0
bin	0.00047	0
scalar scenario.client[1].ppp[1].ppp.queue queueLength:max 1
attr interpolationmode sample-hold
attr source "count(packetPushed) - count(packetPopped) - count(packetRemoved) - count(packetDropped)"
attr title "queue length, max"
scalar scenario.client[1].ppp[1].ppp.queue queueLength:timeavg 4.4444942797913e-007
attr interpolationmode sample-hold
attr source "count(packetPushed) - count(packetPopped) - count(packetRemoved) - count(packetDropped)"
attr title "queue length, timeavg"
scalar scenario.client[1].ppp[1].ppp.queue packetPushed:count 135
attr interpolationmode none
attr title "packet pushed, count"
scalar scenario.client[1].ppp[1].ppp.queue packetPushed:sum(packetBytes) 5481
attr interpolationmode none
attr title "packet pushed, sum(packetBytes)"
scalar scenario.client[1].ppp[1].ppp.queue packetDropQueueOverflow:count 0
attr interpolationmode none
attr source packetDropReasonIsQueueOverflow(packetDropped)
attr title "packet drops: queue overflow, count"
scalar scenario.client[1].ppp[1].ppp.queue packetDropQueueOverflow:sum(packetBytes) 0
attr interpolationmode none
attr source packetDropReasonIsQueueOverflow(packetDropped)
attr title "packet drops: queue overflow, sum(packetBytes)"
scalar scenario.client[1].ppp[1].ppp.queue packetRemoved:count 0
attr interpolationmode none
attr title "packets removed, count"
scalar scenario.client[1].ppp[1].ppp.queue packetRemoved:sum(packetBytes) 0
attr interpolationmode none
attr title "packets removed, sum(packetBytes)"
scalar scenario.client[1].ppp[1].ppp txPk:count 135
attr interpolationmode none
attr source packetSentToLower
attr title "packets transmitted, count"
scalar scenario.client[1].ppp[1].ppp txPk:sum(packetBytes) 6426
attr interpolationmode none
attr source packetSentToLower
attr title "packets transmitted, sum(packetBytes)"
scalar scenario.client[1].ppp[1].ppp rcvdPkFromHl:count 135
attr interpolationmode none
attr source packetReceivedFromUpper
attr title "packets received from higher layer, count"
scalar scenario.client[1].ppp[1].ppp rcvdPkFromHl:sum(packetBytes) 5481
attr interpolationmode none
attr source packetReceivedFromUpper
attr title "packets received from higher layer, sum(packetBytes)"
scalar scenario.client[1].ppp[1].ppp passedUpPk:count 135
attr interpolationmode none
attr source packetSentToUpper
attr title "packets passed to higher layer, count"
scalar scenario.client[1].ppp[1].ppp passedUpPk:sum(packetBytes) 5472
attr interpolationmode none
attr source packetSentToUpper
attr title "packets passed to higher layer, sum(packetBytes)"
scalar scenario.client[1].ppp[1].ppp packetDropIncorrectlyReceived:count 0
attr interpolationmode none
attr source packetDropReasonIsIncorrectlyReceived(packetDropped)
attr title "packet drop: incorrectly received, count"
scalar scenario.client[1].ppp[1].ppp packetDropIncorrectlyReceived:sum(packetBytes) 0
attr interpolationmode none
attr source packetDropReasonIsIncorrectlyReceived(packetDropped)
attr title "packet drop: incorrectly received, sum(packetBytes)"
scalar scenario.client[1].ppp[1].ppp packetDropInterfaceDown:count 0
attr interpolationmode none
attr source packetDropReasonIsInterfaceDown(packetDropped)
attr title "packet drop: interface down, count"
scalar scenario.client[1].ppp[1].ppp packetDropInterfaceDown:sum(packetBytes) 0
attr interpolationmode none
attr source packetDropReasonIsInterfaceDown(packetDropped)
attr title "packet drop: interface down, sum(packetBytes)"
scalar scenario.client[1].ppp[1].ppp rxPkOk:count 135
attr interpolationmode none
attr source rxPkOk
attr title "packets received OK, count"
scalar scenario.client[1].ppp[1].ppp rxPkOk:sum(packetBytes) 6417
attr interpolationmode none
attr source rxPkOk
attr title "packets received OK, sum(packetBytes)"
scalar scenario.client[1].ppp[1].ppp transmissionState:timeavg 2.3368334924315e-006
attr interpolationmode sample-hold
attr source transmissionStateChanged
attr title "tx state, timeavg"
scalar scenario.client[1].ppp[2].ppp.queue packetPopped:count 137
attr interpolationmode none
attr title "packet popped, count"
scalar scenario.client[1].ppp[2].ppp.queue packetPopped:sum(packetBytes) 5562
attr interpolationmode none
attr title "packet popped, sum(packetBytes)"
statistic scenario.client[1].ppp[2].ppp.queue queueingTime:histogram
field count 137
field mean 7.1357664233577e-005
field stddev 0.00014798110656562
field min 0
field max 0.000376
field sum 0.009776
field sqrsum 3.675776e-006
attr interpolationmode none
attr source queueingTime(packetPopped)
attr title "queueing times, histogram"
attr unit s
bin	-inf	0
bin	0	111
bin	1e-005	0
bin	2e-005	0
bin	3e-005	0
bin	4e-005	0
bin	5e-005	0
bin	6e-005	0
bin	7e-005	0
bin	8e-005	0
bin	9e-005	0
bin	0.0001	0
bin	0.00011	0
bin	0.00012	0
bin	0.00013	0
bin	0.00014	0
bin	0.00015	0
bin	0.00016	0
bin	0.00017	0
bin	0.00018	0
bin	0.00019	0
bin	0.0002	0
bin	0.00021	0
bin	0.00022	0
bin	0.00023	0
bin	0.00024	0
bin	0.00025	0
bin	0.00026	0
bin	0.00027	0
bin	0.00028	0
bin	0.00029	0
bin	0.0003	0
bin	0.00031	0
bin	0.00032	0
bin	0.00033	0
bin	0.00034	0
bin	0.00035	0
bin	0.00036	0
bin	0.00037	26
bin	0.00038	0
bin	0.00039	0
bin	0.0004	0
bin	0.00041	0
bin	0.00042	0
bin	0.00043	0
bin	0.00044	0
bin	0.00045	0
bin	0.00046	0
bin	0.00047	0
scalar scenario.client[1].ppp[2].ppp.queue queueLength:max 1
attr interpolationmode sample-hold
attr source "count(packetPushed) - count(packetPopped) - count(packetRemoved) - count(packetDropped)"
attr title "queue length, max"
scalar scenario.client[1].ppp[2].ppp.queue queueLength:timeavg 4.4445634067696e-007
attr interpolationmode sample-hold
attr source "count(packetPushed) - count(packetPopped) - count(packetRemoved) - count(packetDropped)"
attr title "queue length, timeavg"
scalar scenario.client[1].ppp[2].ppp.queue packetPushed:count 137
attr interpolationmode none
attr title "packet pushed, count"
scalar scenario.client[1].ppp[2].ppp.queue packetPushed:sum(packetBytes) 5562
attr interpolationmode none
attr title "packet pushed, sum(packetBytes)"
scalar scenario.client[1].ppp[2].ppp.queue packetDropQueueOverflow:count 0
attr interpolationmode none
attr source packetDropReasonIsQueueOverflow(packetDropped)
attr title "packet drops: queue overflow, count"
scalar scenario.client[1].ppp[2].ppp.queue packetDropQueueOverflow:sum(packetBytes) 0
attr interpolationmode none
attr source packetDropReasonIsQueueOverflow(packetDropped)
attr title "packet drops: queue overflow, sum(packetBytes)"
scalar scenario.client[1].ppp[2].ppp.queue packetRemoved:count 0
attr interpolationmode none
attr title "packets removed, count"
scalar scenario.client[1].ppp[2].ppp.queue packetRemoved:sum(packetBytes) 0
attr interpolationmode none
attr title "packets removed, sum(packetBytes)"
scalar scenario.client[1].ppp[2].ppp txPk:count 137
attr interpolationmode none
attr source packetSentToLower
attr title "packets transmitted, count"
scalar scenario.client[1].ppp[2].ppp txPk:sum(packetBytes) 6521
attr interpolationmode none
attr source packetSentToLower
attr title "packets transmitted, sum(packetBytes)"
scalar scenario.client[1].ppp[2].ppp rcvdPkFromHl:count 137
attr interpolationmode none
attr source packetReceivedFromUpper
attr title "packets received from higher layer, count"
scalar scenario.client[1].ppp[2].ppp rcvdPkFromHl:sum(packetBytes) 5562
attr interpolationmode none
attr source packetReceivedFromUpper
attr title "packets received from higher layer, sum(packetBytes)"
scalar scenario.client[1].ppp[2].ppp passedUpPk:count 137
attr interpolationmode none
attr source packetSentToUpper
attr title "packets passed to higher layer, count"
scalar scenario.client[1].ppp[2].ppp passedUpPk:sum(packetBytes) 5553
attr interpolationmode none
attr source packetSentToUpper
attr title "packets passed to higher layer, sum(packetBytes)"
scalar scenario.client[1].ppp[2].ppp packetDropIncorrectlyReceived:count 0
attr interpolationmode none
attr source packetDropReasonIsIncorrectlyReceived(packetDropped)
attr title "packet drop: incorrectly received, count"
scalar scenario.client[1].ppp[2].ppp packetDropIncorrectlyReceived:sum(packetBytes) 0
attr interpolationmode none
attr source packetDropReasonIsIncorrectlyReceived(packetDropped)
attr title "packet drop: incorrectly received, sum(packetBytes)"
scalar scenario.client[1].ppp[2].ppp packetDropInterfaceDown:count 0
attr interpolationmode none
attr source packetDropReasonIsInterfaceDown(packetDropped)
attr title "packet drop: interface down, count"
scalar scenario.client[1].ppp[2].ppp packetDropInterfaceDown:sum(packetBytes) 0
attr interpolationmode none
attr source packetDropReasonIsInterfaceDown(packetDropped)
attr title "packet drop: interface down, sum(packetBytes)"
scalar scenario.client[1].ppp[2].ppp rxPkOk:count 137
attr interpolationmode none
attr source rxPkOk
attr title "packets received OK, count"
scalar scenario.client[1].ppp[2].ppp rxPkOk:sum(packetBytes) 6512
attr interpolationmode none
attr source rxPkOk
attr title "packets received OK, sum(packetBytes)"
scalar scenario.client[1].ppp[2].ppp transmissionState:timeavg 2.3713805172962e-006
attr interpolationmode sample-hold
attr source transmissionStateChanged
attr title "tx state, timeavg"
scalar scenario.client[1].ppp[3].ppp.queue packetPopped:count 135
attr interpolationmode none
attr title "packet popped, count"
scalar scenario.client[1].ppp[3].ppp.queue packetPopped:sum(packetBytes) 5481
attr interpolationmode none
attr title "packet popped, sum(packetBytes)"
statistic scenario.client[1].ppp[3].ppp.queue queueingTime:histogram
field count 135
field mean 6.962962962963e-005
field stddev 0.00014660031666704
field min 0
field max 0.000376
field sum 0.0094
field sqrsum 3.5344e-006
attr interpolationmode none
attr source queueingTime(packetPopped)
attr title "queueing times, histogram"
attr unit s
bin	-inf	0
bin	0	110
bin	1e-005	0
bin	2e-005	0
bin	3e-005	0
bin	4e-005	0
bin	5e-005	0
bin	6e-005	0
bin	7e-005	0
bin	8e-005	0
bin	9e-005	0
bin	0.0001	0
bin	0.00011	0
bin	0.00012	0
bin	0.00013	0
bin	0.00014	0
bin	0.00015	0
bin	0.00016	0
bin	0.00017	0
bin	0.00018	0
bin	0.00019	0
bin	0.0002	0
bin	0.00021	0
bin	0.00022	0
bin	0.00023	0
bin	0.00024	0
bin	0.00025	0
bin	0.00026	0
bin	0.00027	0
bin	0.00028	0
bin	0.00029	0
bin	0.0003	0
bin	0.00031	0
bin	0.00032	0
bin	0.00033	0
bin	0.00034	0
bin	0.00035	0
bin	0.00036	0
bin	0.00037	25
bin	0.00038	0
bin	0.00039	0
bin	0.0004	0
bin	0.00041	0
bin	0.00042	0
bin	0.00043	0
bin	0.00044	0
bin	0.00045	0
bin	0.00046	0
bin	0.00047	0
scalar scenario.client[1].ppp[3].ppp.queue queueLength:max 1
attr interpolationmode sample-hold
attr source "count(packetPushed) - count(packetPopped) - count(packetRemoved) - count(packetDropped)"
attr title "queue length, max"
scalar scenario.client[1].ppp[3].ppp.queue queueLength:timeavg 4.2736421719478e-007
attr interpolationmode sample-hold
attr source "count(packetPushed) - count(packetPopped) - count(packetRemoved) - count(packetDropped)"
attr title "queue length, timeavg"
scalar scenario.client[1].ppp[3].ppp.queue packetPushed:count 135
attr interpolationmode none
attr title "packet pushed, count"
scalar scenario.client[1].ppp[3].ppp.queue packetPushed:sum(packetBytes) 5481
attr interpolationmode none
attr title "packet pushed, sum(packetBytes)"
scalar scenario.client[1].ppp[3].ppp.queue packetDropQueueOverflow:count 0
attr interpolationmode none
attr source packetDropReasonIsQueueOverflow(packetDropped)
attr title "packet drops: queue overflow, count"
scalar scenario.client[1].ppp[3].ppp.queue packetDropQueueOverflow:sum(packetBytes) 0
attr interpolationmode none
attr source packetDropReasonIsQueueOverflow(packetDropped)
attr title "packet drops: queue overflow, sum(packetBytes)"
scalar scenario.client[1].ppp[3].ppp.queue packetRemoved:count 0
attr interpolationmode none
attr title "packets removed, count"
scalar scenario.client[1].ppp[3].ppp.queue packetRemoved:sum(packetBytes) 0
attr interpolationmode none
attr title "packets removed, sum(packetBytes)"
scalar scenario.client[1].ppp[3].ppp txPk:count 135
attr interpolationmode none
attr source packetSentToLower
attr title "packets transmitted, count"
scalar scenario.client[1].ppp[3].ppp txPk:sum(packetBytes) 6426
attr interpolationmode none
attr source packetSentToLower
attr title "packets transmitted, sum(packetBytes)"
scalar scenario.client[1].ppp[3].ppp rcvdPkFromHl:count 135
attr interpolationmode none
attr source packetReceivedFromUpper
attr title "packets received from higher layer, count"
scalar scenario.client[1].ppp[3].ppp rcvdPkFromHl:sum(packetBytes) 5481
attr interpolationmode none
attr source packetReceivedFromUpper
attr title "packets received from higher layer, sum(packetBytes)"
scalar scenario.client[1].ppp[3].ppp passedUpPk:count 135
attr interpolationmode none
attr source packetSentToUpper
attr title "packets passed to higher layer, count"
scalar scenario.client[1].ppp[3].ppp passedUpPk:sum(packetBytes) 5472
attr interpolationmode none
attr source packetSentToUpper
attr title "packets passed to higher layer, sum(packetBytes)"
scalar scenario.client[1].ppp[3].ppp packetDropIncorrectlyReceived:count 0
attr interpolationmode none
attr source packetDropReasonIsIncorrectlyReceived(packetDropped)
attr title "packet drop: incorrectly received, count"
scalar scenario.client[1].ppp[3].ppp packetDropIncorrectlyReceived:sum(packetBytes) 0
attr interpolationmode none
attr source packetDropReasonIsIncorrectlyReceived(packetDropped)
attr title "packet drop: incorrectly received, sum(packetBytes)"
scalar scenario.client[1].ppp[3].ppp packetDropInterfaceDown:count 0
attr interpolationmode none
attr source packetDropReasonIsInterfaceDown(packetDropped)
attr title "packet drop: interface down, count"
scalar scenario.client[1].ppp[3].ppp packetDropInterfaceDown:sum(packetBytes) 0
attr interpolationmode none
attr source packetDropReasonIsInterfaceDown(packetDropped)
attr title "packet drop: interface down, sum(packetBytes)"
scalar scenario.client[1].ppp[3].ppp rxPkOk:count 135
attr interpolationmode none
attr source rxPkOk
attr title "packets received OK, count"
scalar scenario.client[1].ppp[3].ppp rxPkOk:sum(packetBytes) 6417
attr interpolationmode none
attr source rxPkOk
attr title "packets received OK, sum(packetBytes)"
scalar scenario.client[1].ppp[3].ppp transmissionState:timeavg 2.3368334924315e-006
attr interpolationmode sample-hold
attr source transmissionStateChanged
attr title "tx state, timeavg"
scalar scenario.client[1].ppp[4].ppp.queue packetPopped:count 115
attr interpolationmode none
attr title "packet popped, count"
scalar scenario.client[1].ppp[4].ppp.queue packetPopped:sum(packetBytes) 4670
attr interpolationmode none
attr title "packet popped, sum(packetBytes)"
statistic scenario.client[1].ppp[4].ppp.queue queueingTime:histogram
field count 115
field mean 7.8469565217391e-005
field stddev 0.00015346622702578
field min 0
field max 0.000376
field sum 0.009024
field sqrsum 3.393024e-006
attr interpolationmode none
attr source queueingTime(packetPopped)
attr title "queueing times, histogram"
attr unit s
bin	-inf	0
bin	0	91
bin	1e-005	0
bin	2e-005	0
bin	3e-005	0
bin	4e-005	0
bin	5e-005	0
bin	6e-005	0
bin	7e-005	0
bin	8e-005	0
bin	9e-005	0
bin	0.0001	0
bin	0.00011	0
bin	0.00012	0
bin	0.00013	0
bin	0.00014	0
bin	0.00015	0
bin	0.00016	0
bin	0.00017	0
bin	0.00018	0
bin	0.00019	0
bin	0.0002	0
bin	0.00021	0
bin	0.00022	0
bin	0.00023	0
bin	0.00024	0
bin	0.00025	0
bin	0.00026	0
bin	0.00027	0
bin	0.00028	0
bin	0.00029	0
bin	0.0003	0
bin	0.00031	0
bin	0.00032	0
bin	0.00033	0
bin	0.00034	0
bin	0.00035	0
bin	0.00036	0
bin	0.00037	24
bin	0.00038	0
bin	0.00039	0
bin	0.0004	0
bin	0.00041	0
bin	0.00042	0
bin	0.00043	0
bin	0.00044	0
bin	0.00045	0
bin	0.00046	0
bin	0.00047	0
scalar scenario.client[1].ppp[4].ppp.queue queueLength:max 1
attr interpolationmode sample-hold
attr source "count(packetPushed) - count(packetPopped) - count(packetRemoved) - count(packetDropped)"
attr title "queue length, max"
scalar scenario.client[1].ppp[4].ppp.queue queueLength:timeavg 4.1022661345505e-007
attr interpolationmode sample-hold
attr source "count(packetPushed) - count(packetPopped) - count(packetRemoved) - count(packetDropped)"
attr title "queue length, timeavg"
scalar scenario.client[1].ppp[4].ppp.queue packetPushed:count 115
attr interpolationmode none
attr title "packet pushed, count"
scalar scenario.client[1].ppp[4].ppp.queue packetPushed:sum(packetBytes) 4670
attr interpolationmode none
attr title "packet pushed, sum(packetBytes)"
scalar scenario.client[1].ppp[4].ppp.queue packetDropQueueOverflow:count 0
attr interpolationmode none
attr source packetDropReasonIsQueueOverflow(packetDropped)
attr title "packet drops: queue overflow, count"
scalar scenario.client[1].ppp[4].ppp.queue packetDropQueueOverflow:sum(packetBytes) 0
attr interpolationmode none
attr source packetDropReasonIsQueueOverflow(packetDropped)
attr title "packet drops: queue overflow, sum(packetBytes)"
scalar scenario.client[1].ppp[4].ppp.queue packetRemoved:count 0
attr interpolationmode none
attr title "packets removed, count"
scalar scenario.client[1].ppp[4].ppp.queue packetRemoved:sum(packetBytes) 0
attr interpolationmode none
attr title "packets removed, sum(packetBytes)"
scalar scenario.client[1].ppp[4].ppp txPk:count 115
attr interpolationmode none
attr source packetSentToLower
attr title "packets transmitted, count"
scalar scenario.client[1].ppp[4].ppp txPk:sum(packetBytes) 5475
attr interpolationmode none
attr source packetSentToLower
attr title "packets transmitted, sum(packetBytes)"
scalar scenario.client[1].ppp[4].ppp rcvdPkFromHl:count 115
attr interpolationmode none
attr source packetReceivedFromUpper
attr title "packets received from higher layer, count"
scalar scenario.client[1].ppp[4].ppp rcvdPkFromHl:sum(packetBytes) 4670
attr interpolationmode none
attr source packetReceivedFromUpper
attr title "packets received from higher layer, sum(packetBytes)"
scalar scenario.client[1].ppp[4].ppp passedUpPk:count 115
attr interpolationmode none
attr source packetSentToUpper
attr title "packets passed to higher layer, count"
scalar scenario.client[1].ppp[4].ppp passedUpPk:sum(packetBytes) 4662
attr interpolationmode none
attr source packetSentToUpper
attr title "packets passed to higher layer, sum(packetBytes)"
scalar scenario.client[1].ppp[4].ppp packetDropIncorrectlyReceived:count 0
attr interpolationmode none
attr source packetDropReasonIsIncorrectlyReceived(packetDropped)
attr title "packet drop: incorrectly received, count"
scalar scenario.client[1].ppp[4].ppp packetDropIncorrectlyReceived:sum(packetBytes) 0
attr interpolationmode none
attr source packetDropReasonIsIncorrectlyReceived(packetDropped)
attr title "packet drop: incorrectly received, sum(packetBytes)"
scalar scenario.client[1].ppp[4].ppp packetDropInterfaceDown:count 0
attr interpolationmode none
attr source packetDropReasonIsInterfaceDown(packetDropped)
attr title "packet drop: interface down, count"
scalar scenario.client[1].ppp[4].ppp packetDropInterfaceDown:sum(packetBytes) 0
attr interpolationmode none
attr source packetDropReasonIsInterfaceDown(packetDropped)
attr title "packet drop: interface down, sum(packetBytes)"
scalar scenario.client[1].ppp[4].ppp rxPkOk:count 115
attr interpolationmode none
attr source rxPkOk
attr title "packets received OK, count"
scalar scenario.client[1].ppp[4].ppp rxPkOk:sum(packetBytes) 5467
attr interpolationmode none
attr source rxPkOk
attr title "packets received OK, sum(packetBytes)"
scalar scenario.client[1].ppp[4].ppp transmissionState:timeavg 1.9909995908905e-006
attr interpolationmode sample-hold
attr source transmissionStateChanged
attr title "tx state, timeavg"
scalar scenario.client[1].ppp[5].ppp.queue packetPopped:count 78
attr interpolationmode none
attr title "packet popped, count"
scalar scenario.client[1].ppp[5].ppp.queue packetPopped:sum(packetBytes) 3168
attr interpolationmode none
attr title "packet popped, sum(packetBytes)"
statistic scenario.client[1].ppp[5].ppp.queue queueingTime:histogram
field count 78
field mean 8.6769230769231e-005
field stddev 0.00015944358796219
field min 0
field max 0.000376
field sum 0.006768
field sqrsum 2.544768e-006
attr interpolationmode none
attr source queueingTime(packetPopped)
attr title "queueing times, histogram"
attr unit s
bin	-inf	0
bin	0	60
bin	1e-005	0
bin	2e-005	0
bin	3e-005	0
bin	4e-005	0
bin	5e-005	0
bin	6e-005	0
bin	7e-005	0
bin	8e-005	0
bin	9e-005	0
bin	0.0001	0
bin	0.00011	0
bin	0.00012	0
bin	0.00013	0
bin	0.00014	0
bin	0.00015	0
bin	0.00016	0
bin	0.00017	0
bin	0.00018	0
bin	0.00019	0
bin	0.0002	0
bin	0.00021	0
bin	0.00022	0
bin	0.00023	0
bin	0.00024	0
bin	0.00025	0
bin	0.00026	0
bin	0.00027	0
bin	0.00028	0
bin	0.00029	0
bin	0.0003	0
bin	0.00031	0
bin	0.00032	0
bin	0.00033	0
bin	0.00034	0
bin	0.00035	0
bin	0.00036	0
bin	0.00037	18
bin	0.00038	0
bin	0.00039	0
bin	0.0004	0
bin	0.00041	0
bin	0.00042	0
bin	0.00043	0
bin	0.00044	0
bin	0.00045	0
bin	0.00046	0
bin	0.00047	0
scalar scenario.client[1].ppp[5].ppp.queue queueLength:max 1
attr interpolationmode sample-hold
attr source "count(packetPushed) - count(packetPopped) - count(packetRemoved) - count(packetDropped)"
attr title "queue length, max"
scalar scenario.client[1].ppp[5].ppp.queue queueLength:timeavg 3.0771259837354e-007
attr interpolationmode sample-hold
attr source "count(packetPushed) - count(packetPopped) - count(packetRemoved) - count(packetDropped)"
attr title "queue length, timeavg"
scalar scenario.client[1].ppp[5].ppp.queue packetPushed:count 78
attr interpolationmode none
attr title "packet pushed, count"
scalar scenario.client[1].ppp[5].ppp.queue packetPushed:sum(packetBytes) 3168
attr interpolationmode none
attr title "packet pushed, sum(packetBytes)"
scalar scenario.client[1].ppp[5].ppp.queue packetDropQueueOverflow:count 0
attr interpolationmode none
attr source packetDropReasonIsQueueOverflow(packetDropped)
attr title "packet drops: queue overflow, count"
scalar scenario.client[1].ppp[5].ppp.queue packetDropQueueOverflow:sum(packetBytes) 0
attr interpolationmode none
attr source packetDropReasonIsQueueOverflow(packetDropped)
attr title "packet drops: queue overflow, sum(packetBytes)"
scalar scenario.client[1].ppp[5].ppp.queue packetRemoved:count 0
attr interpolationmode none
attr title "packets removed, count"
scalar scenario.client[1].ppp[5].ppp.queue packetRemoved:sum(packetBytes) 0
attr interpolationmode none
attr title "packets removed, sum(packetBytes)"
scalar scenario.client[1].ppp[5].ppp txPk:count 78
attr interpolationmode none
attr source packetSentToLower
attr title "packets transmitted, count"
scalar scenario.client[1].ppp[5].ppp txPk:sum(packetBytes) 3714
attr interpolationmode none
attr source packetSentToLower
attr title "packets transmitted, sum(packetBytes)"
scalar scenario.client[1].ppp[5].ppp rcvdPkFromHl:count 78
attr interpolationmode none
attr source packetReceivedFromUpper
attr title "packets received from higher layer, count"
scalar scenario.client[1].ppp[5].ppp rcvdPkFromHl:sum(packetBytes) 3168
attr interpolationmode none
attr source packetReceivedFromUpper
attr title "packets received from higher layer, sum(packetBytes)"
scalar scenario.client[1].ppp[5].ppp passedUpPk:count 78
attr interpolationmode none
attr source packetSentToUpper
attr title "packets passed to higher layer, count"
scalar scenario.client[1].ppp[5].ppp passedUpPk:sum(packetBytes) 3165
attr interpolationmode none
attr source packetSentToUpper
attr title "packets passed to higher layer, sum(packetBytes)"
scalar scenario.client[1].ppp[5].ppp packetDropIncorrectlyReceived:count 0
attr interpolationmode none
attr source packetDropReasonIsIncorrectlyReceived(packetDropped)
attr title "packet drop: incorrectly received, count"
scalar scenario.client[1].ppp[5].ppp packetDropIncorrectlyReceived:sum(packetBytes) 0
attr interpolationmode none
attr source packetDropReasonIsIncorrectlyReceived(packetDropped)
attr title "packet drop: incorrectly received, sum(packetBytes)"
scalar scenario.client[1].ppp[5].ppp packetDropInterfaceDown:count 0
attr interpolationmode none
attr source packetDropReasonIsInterfaceDown(packetDropped)
attr title "packet drop: interface down, count"
scalar scenario.client[1].ppp[5].ppp packetDropInterfaceDown:sum(packetBytes) 0
attr interpolationmode none
attr source packetDropReasonIsInterfaceDown(packetDropped)
attr title "packet drop: interface down, sum(packetBytes)"
scalar scenario.client[1].ppp[5].ppp rxPkOk:count 78
attr interpolationmode none
attr source rxPkOk
attr title "packets received OK, count"
scalar scenario.client[1].ppp[5].ppp rxPkOk:sum(packetBytes) 3711
attr interpolationmode none
attr source rxPkOk
attr title "packets received OK, sum(packetBytes)"
scalar scenario.client[1].ppp[5].ppp transmissionState:timeavg 1.3506068457657e-006
attr interpolationmode sample-hold
attr source transmissionStateChanged
attr title "tx state, timeavg"
scalar scenario.client[1].ppp[6].ppp.queue packetPopped:count 76
attr interpolationmode none
attr title "packet popped, count"
scalar scenario.client[1].ppp[6].ppp.queue packetPopped:sum(packetBytes) 3087
attr interpolationmode none
attr title "packet popped, sum(packetBytes)"
statistic scenario.client[1].ppp[6].ppp.queue queueingTime:histogram
field count 76
field mean 8.4105263157895e-005
field stddev 0.00015772512621202
field min 0
field max 0.000376
field sum 0.006392
field sqrsum 2.403392e-006
attr interpolationmode none
attr source queueingTime(packetPopped)
attr title "queueing times, histogram"
attr unit s
bin	-inf	0
bin	0	59
bin	1e-005	0
bin	2e-005	0
bin	3e-005	0
bin	4e-005	0
bin	5e-005	0
bin	6e-005	0
bin	7e-005	0
bin	8e-005	0
bin	9e-005	0
bin	0.0001	0
bin	0.00011	0
bin	0.00012	0
bin	0.00013	0
bin	0.00014	0
bin	0.00015	0
bin	0.00016	0
bin	0.00017	0
bin	0.00018	0
bin	0.00019	0
bin	0.0002	0
bin	0.00021	0
bin	0.00022	0
bin	0.00023	0
bin	0.00024	0
bin	0.00025	0
bin	0.00026	0
bin	0.00027	0
bin	0.00028	0
bin	0.00029	0
bin	0.0003	0
bin	0.00031	0
bin	0.00032	0
bin	0.00033	0
bin	0.00034	0
bin	0.00035	0
bin	0.00036	0
bin	0.00037	17
bin	0.00038	0
bin	0.00039	0
bin	0.0004	0
bin	0.00041	0
bin	0.00042	0
bin	0.00043	0
bin	0.00044	0
bin	0.00045	0
bin	0.00046	0
bin	0.00047	0
scalar scenario.client[1].ppp[6].ppp.queue queueLength:max 1
attr interpolationmode sample-hold
attr source "count(packetPushed) - count(packetPopped) - count(packetRemoved) - count(packetDropped)"
attr title "queue length, max"
scalar scenario.client[1].ppp[6].ppp.queue queueLength:timeavg 2.906961343924e-007
attr interpolationmode sample-hold
attr source "count(packetPushed) - count(packetPopped) - count(packetRemoved) - count(packetDropped)"
attr title "queue length, timeavg"
scalar scenario.client[1].ppp[6].ppp.queue packetPushed:count 76
attr interpolationmode none
attr title "packet pushed, count"
scalar scenario.client[1].ppp[6].ppp.queue packetPushed:sum(packetBytes) 3087
attr interpolationmode none
attr title "packet pushed, sum(packetBytes)"
scalar scenario.client[1].ppp[6].ppp.queue packetDropQueueOverflow:count 0
attr interpolationmode none
attr source packetDropReasonIsQueueOverflow(packetDropped)
attr title "packet drops: queue overflow, count"
scalar scenario.client[1].ppp[6].ppp.queue packetDropQueueOverflow:sum(packetBytes) 0
attr interpolationmode none
attr source packetDropReasonIsQueueOverflow(packetDropped)
attr title "packet drops: queue overflow, sum(packetBytes)"
scalar scenario.client[1].ppp[6].ppp.queue packetRemoved:count 0
attr interpolationmode none
attr title "packets removed, count"
scalar scenario.client[1].ppp[6].ppp.queue packetRemoved:sum(packetBytes) 0
attr interpolationmode none
attr title "packets removed, sum(packetBytes)"
scalar scenario.client[1].ppp[6].ppp txPk:count 76
attr interpolationmode none
attr source packetSentToLower
attr title "packets transmitted, count"
scalar scenario.client[1].ppp[6].ppp txPk:sum(packetBytes) 3619
attr interpolationmode none
attr source packetSentToLower
attr title "packets transmitted, sum(packetBytes)"
scalar scenario.client[1].ppp[6].ppp rcvdPkFromHl:count 76
attr interpolationmode none
attr source packetReceivedFromUpper
attr title "packets received from higher layer, count"
scalar scenario.client[1].ppp[6].ppp rcvdPkFromHl:sum(packetBytes) 3087
attr interpolationmode none
attr source packetReceivedFromUpper
attr title "packets received from higher layer, sum(packetBytes)"
scalar scenario.client[1].ppp[6].ppp passedUpPk:count 76
attr interpolationmode none
attr source packetSentToUpper
attr title "packets passed to higher layer, count"
scalar scenario.client[1].ppp[6].ppp passedUpPk:sum(packetBytes) 3084
attr interpolationmode none
attr source packetSentToUpper
attr title "packets passed to higher layer, sum(packetBytes)"
scalar scenario.client[1].ppp[6].ppp packetDropIncorrectlyReceived:count 0
attr interpolationmode none
attr source packetDropReasonIsIncorrectlyReceived(packetDropped)
attr title "packet drop: incorrectly received, count"
scalar scenario.client[1].ppp[6].ppp packetDropIncorrectlyReceived:sum(packetBytes) 0
attr interpolationmode none
attr source packetDropReasonIsIncorrectlyReceived(packetDropped)
attr title "packet drop: incorrectly received, sum(packetBytes)"
scalar scenario.client[1].ppp[6].ppp packetDropInterfaceDown:count 0
attr interpolationmode none
attr source packetDropReasonIsInterfaceDown(packetDropped)
attr title "packet drop: interface down, count"
scalar scenario.client[1].ppp[6].ppp packetDropInterfaceDown:sum(packetBytes) 0
attr interpolationmode none
attr source packetDropReasonIsInterfaceDown(packetDropped)
attr title "packet drop: interface down, sum(packetBytes)"
scalar scenario.client[1].ppp[6].ppp rxPkOk:count 76
attr interpolationmode none
[...]
field count 82
field mean 8.2536585365854e-005
field stddev 0.00015659022525364
field min 0
field max 0.000376
field sum 0.006768
field sqrsum 2.544768e-006
attr interpolationmode none
attr source queueingTime(packetPopped)
attr title "queueing times, histogram"
attr unit s
bin	-inf	0
bin	0	64
bin	1e-005	0
bin	2e-005	0
bin	3e-005	0
bin	4e-005	0
bin	5e-005	0
bin	6e-005	0
bin	7e-005	0
bin	8e-005	0
bin	9e-005	0
bin	0.0001	0
bin	0.00011	0
bin	0.00012	0
bin	0.00013	0
bin	0.00014	0
bin	0.00015	0
bin	0.00016	0
bin	0.00017	0
bin	0.00018	0
bin	0.00019	0
bin	0.0002	0
bin	0.00021	0
bin	0.00022	0
bin	0.00023	0
bin	0.00024	0
bin	0.00025	0
bin	0.00026	0
bin	0.00027	0
bin	0.00028	0
bin	0.00029	0
bin	0.0003	0
bin	0.00031	0
bin	0.00032	0
bin	0.00033	0
bin	0.00034	0
bin	0.00035	0
bin	0.00036	0
bin	0.00037	18
bin	0.00038	0
bin	0.00039	0
bin	0.0004	0
bin	0.00041	0
bin	0.00042	0
bin	0.00043	0
bin	0.00044	0
bin	0.00045	0
bin	0.00046	0
bin	0.00047	0
scalar scenario.client[7].ppp[4].ppp.queue queueLength:max 1
attr interpolationmode sample-hold
attr source "count(packetPushed) - count(packetPopped) - count(packetRemoved) - count(packetDropped)"
attr title "queue length, max"
scalar scenario.client[7].ppp[4].ppp.queue queueLength:timeavg 3.078134042746e-007
attr interpolationmode sample-hold
attr source "count(packetPushed) - count(packetPopped) - count(packetRemoved) - count(packetDropped)"
attr title "queue length, timeavg"
scalar scenario.client[7].ppp[4].ppp.queue packetPushed:count 82
attr interpolationmode none
attr title "packet pushed, count"
scalar scenario.client[7].ppp[4].ppp.queue packetPushed:sum(packetBytes) 3327
attr interpolationmode none
attr title "packet pushed, sum(packetBytes)"
scalar scenario.client[7].ppp[4].ppp.queue packetDropQueueOverflow:count 0
attr interpolationmode none
attr source packetDropReasonIsQueueOverflow(packetDropped)
attr title "packet drops: queue overflow, count"
scalar scenario.client[7].ppp[4].ppp.queue packetDropQueueOverflow:sum(packetBytes) 0
attr interpolationmode none
attr source packetDropReasonIsQueueOverflow(packetDropped)
attr title "packet drops: queue overflow, sum(packetBytes)"
scalar scenario.client[7].ppp[4].ppp.queue packetRemoved:count 0
attr interpolationmode none
attr title "packets removed, count"
scalar scenario.client[7].ppp[4].ppp.queue packetRemoved:sum(packetBytes) 0
attr interpolationmode none
attr title "packets removed, sum(packetBytes)"
scalar scenario.client[7].ppp[4].ppp txPk:count 82
attr interpolationmode none
attr source packetSentToLower
attr title "packets transmitted, count"
scalar scenario.client[7].ppp[4].ppp txPk:sum(packetBytes) 3901
attr interpolationmode none
attr source packetSentToLower
attr title "packets transmitted, sum(packetBytes)"
scalar scenario.client[7].ppp[4].ppp rcvdPkFromHl:count 82
attr interpolationmode none
attr source packetReceivedFromUpper
attr title "packets received from higher layer, count"
scalar scenario.client[7].ppp[4].ppp rcvdPkFromHl:sum(packetBytes) 3327
attr interpolationmode none
attr source packetReceivedFromUpper
attr title "packets received from higher layer, sum(packetBytes)"
scalar scenario.client[7].ppp[4].ppp passedUpPk:count 82
attr interpolationmode none
attr source packetSentToUpper
attr title "packets passed to higher layer, count"
scalar scenario.client[7].ppp[4].ppp passedUpPk:sum(packetBytes) 3330
attr interpolationmode none
attr source packetSentToUpper
attr title "packets passed to higher layer, sum(packetBytes)"
scalar scenario.client[7].ppp[4].ppp packetDropIncorrectlyReceived:count 0
attr interpolationmode none
attr source packetDropReasonIsIncorrectlyReceived(packetDropped)
attr title "packet drop: incorrectly received, count"
scalar scenario.client[7].ppp[4].ppp packetDropIncorrectlyReceived:sum(packetBytes) 0
attr interpolationmode none
attr source packetDropReasonIsIncorrectlyReceived(packetDropped)
attr title "packet drop: incorrectly received, sum(packetBytes)"
scalar scenario.client[7].ppp[4].ppp packetDropInterfaceDown:count 0
attr interpolationmode none
attr source packetDropReasonIsInterfaceDown(packetDropped)
attr title "packet drop: interface down, count"
scalar scenario.client[7].ppp[4].ppp packetDropInterfaceDown:sum(packetBytes) 0
attr interpolationmode none
attr source packetDropReasonIsInterfaceDown(packetDropped)
attr title "packet drop: interface down, sum(packetBytes)"
scalar scenario.client[7].ppp[4].ppp rxPkOk:count 82
attr interpolationmode none
attr source rxPkOk
attr title "packets received OK, count"
scalar scenario.client[7].ppp[4].ppp rxPkOk:sum(packetBytes) 3904
attr interpolationmode none
attr source rxPkOk
attr title "packets received OK, sum(packetBytes)"
scalar scenario.client[7].ppp[4].ppp transmissionState:timeavg 1.4186099368153e-006
attr interpolationmode sample-hold
attr source transmissionStateChanged
attr title "tx state, timeavg"
scalar scenario.client[7].ppp[5].ppp.queue packetPopped:count 83
attr interpolationmode none
attr title "packet popped, count"
scalar scenario.client[7].ppp[5].ppp.queue packetPopped:sum(packetBytes) 3367
attr interpolationmode none
attr title "packet popped, sum(packetBytes)"
statistic scenario.client[7].ppp[5].ppp.queue queueingTime:histogram
field count 83
field mean 8.6072289156626e-005
field stddev 0.0001589310161085
field min 0
field max 0.000376
field sum 0.007144
field sqrsum 2.686144e-006
attr interpolationmode none
attr source queueingTime(packetPopped)
attr title "queueing times, histogram"
attr unit s
bin	-inf	0
bin	0	64
bin	1e-005	0
bin	2e-005	0
bin	3e-005	0
bin	4e-005	0
bin	5e-005	0
bin	6e-005	0
bin	7e-005	0
bin	8e-005	0
bin	9e-005	0
bin	0.0001	0
bin	0.00011	0
bin	0.00012	0
bin	0.00013	0
bin	0.00014	0
bin	0.00015	0
bin	0.00016	0
bin	0.00017	0
bin	0.00018	0
bin	0.00019	0
bin	0.0002	0
bin	0.00021	0
bin	0.00022	0
bin	0.00023	0
bin	0.00024	0
bin	0.00025	0
bin	0.00026	0
bin	0.00027	0
bin	0.00028	0
bin	0.00029	0
bin	0.0003	0
bin	0.00031	0
bin	0.00032	0
bin	0.00033	0
bin	0.00034	0
bin	0.00035	0
bin	0.00036	0
bin	0.00037	19
bin	0.00038	0
bin	0.00039	0
bin	0.0004	0
bin	0.00041	0
bin	0.00042	0
bin	0.00043	0
bin	0.00044	0
bin	0.00045	0
bin	0.00046	0
bin	0.00047	0
scalar scenario.client[7].ppp[5].ppp.queue queueLength:max 1
attr interpolationmode sample-hold
attr source "count(packetPushed) - count(packetPopped) - count(packetRemoved) - count(packetDropped)"
attr title "queue length, max"
scalar scenario.client[7].ppp[5].ppp.queue queueLength:timeavg 3.2497825069045e-007
attr interpolationmode sample-hold
attr source "count(packetPushed) - count(packetPopped) - count(packetRemoved) - count(packetDropped)"
attr title "queue length, timeavg"
scalar scenario.client[7].ppp[5].ppp.queue packetPushed:count 83
attr interpolationmode none
attr title "packet pushed, count"
scalar scenario.client[7].ppp[5].ppp.queue packetPushed:sum(packetBytes) 3367
attr interpolationmode none
attr title "packet pushed, sum(packetBytes)"
scalar scenario.client[7].ppp[5].ppp.queue packetDropQueueOverflow:count 0
attr interpolationmode none
attr source packetDropReasonIsQueueOverflow(packetDropped)
attr title "packet drops: queue overflow, count"
scalar scenario.client[7].ppp[5].ppp.queue packetDropQueueOverflow:sum(packetBytes) 0
attr interpolationmode none
attr source packetDropReasonIsQueueOverflow(packetDropped)
attr title "packet drops: queue overflow, sum(packetBytes)"
scalar scenario.client[7].ppp[5].ppp.queue packetRemoved:count 0
attr interpolationmode none
attr title "packets removed, count"
scalar scenario.client[7].ppp[5].ppp.queue packetRemoved:sum(packetBytes) 0
attr interpolationmode none
attr title "packets removed, sum(packetBytes)"
scalar scenario.client[7].ppp[5].ppp txPk:count 83
attr interpolationmode none
attr source packetSentToLower
attr title "packets transmitted, count"
scalar scenario.client[7].ppp[5].ppp txPk:sum(packetBytes) 3948
attr interpolationmode none
attr source packetSentToLower
attr title "packets transmitted, sum(packetBytes)"
scalar scenario.client[7].ppp[5].ppp rcvdPkFromHl:count 83
attr interpolationmode none
attr source packetReceivedFromUpper
attr title "packets received from higher layer, count"
scalar scenario.client[7].ppp[5].ppp rcvdPkFromHl:sum(packetBytes) 3367
attr interpolationmode none
attr source packetReceivedFromUpper
attr title "packets received from higher layer, sum(packetBytes)"
scalar scenario.client[7].ppp[5].ppp passedUpPk:count 83
attr interpolationmode none
attr source packetSentToUpper
attr title "packets passed to higher layer, count"
scalar scenario.client[7].ppp[5].ppp passedUpPk:sum(packetBytes) 3371
attr interpolationmode none
attr source packetSentToUpper
attr title "packets passed to higher layer, sum(packetBytes)"
scalar scenario.client[7].ppp[5].ppp packetDropIncorrectlyReceived:count 0
attr interpolationmode none
attr source packetDropReasonIsIncorrectlyReceived(packetDropped)
attr title "packet drop: incorrectly received, count"
scalar scenario.client[7].ppp[5].ppp packetDropIncorrectlyReceived:sum(packetBytes) 0
attr interpolationmode none
attr source packetDropReasonIsIncorrectlyReceived(packetDropped)
attr title "packet drop: incorrectly received, sum(packetBytes)"
scalar scenario.client[7].ppp[5].ppp packetDropInterfaceDown:count 0
attr interpolationmode none
attr source packetDropReasonIsInterfaceDown(packetDropped)
attr title "packet drop: interface down, count"
scalar scenario.client[7].ppp[5].ppp packetDropInterfaceDown:sum(packetBytes) 0
attr interpolationmode none
attr source packetDropReasonIsInterfaceDown(packetDropped)
attr title "packet drop: interface down, sum(packetBytes)"
scalar scenario.client[7].ppp[5].ppp rxPkOk:count 83
attr interpolationmode none
attr source rxPkOk
attr title "packets received OK, count"
scalar scenario.client[7].ppp[5].ppp rxPkOk:sum(packetBytes) 3952
attr interpolationmode none
attr source rxPkOk
attr title "packets received OK, sum(packetBytes)"
scalar scenario.client[7].ppp[5].ppp transmissionState:timeavg 1.435701622801e-006
attr interpolationmode sample-hold
attr source transmissionStateChanged
attr title "tx state, timeavg"
scalar scenario.client[7].ppp[6].ppp.queue packetPopped:count 76
attr interpolationmode none
attr title "packet popped, count"
scalar scenario.client[7].ppp[6].ppp.queue packetPopped:sum(packetBytes) 3085
attr interpolationmode none
attr title "packet popped, sum(packetBytes)"
statistic scenario.client[7].ppp[6].ppp.queue queueingTime:histogram
field count 76
field mean 8.9052631578947e-005
field stddev 0.00016091653279361
field min 0
field max 0.000376
field sum 0.006768
field sqrsum 2.544768e-006
attr interpolationmode none
attr source queueingTime(packetPopped)
attr title "queueing times, histogram"
attr unit s
bin	-inf	0
bin	0	58
bin	1e-005	0
bin	2e-005	0
bin	3e-005	0
bin	4e-005	0
bin	5e-005	0
bin	6e-005	0
bin	7e-005	0
bin	8e-005	0
bin	9e-005	0
bin	0.0001	0
bin	0.00011	0
bin	0.00012	0
bin	0.00013	0
bin	0.00014	0
bin	0.00015	0
bin	0.00016	0
bin	0.00017	0
bin	0.00018	0
bin	0.00019	0
bin	0.0002	0
bin	0.00021	0
bin	0.00022	0
bin	0.00023	0
bin	0.00024	0
bin	0.00025	0
bin	0.00026	0
bin	0.00027	0
bin	0.00028	0
bin	0.00029	0
bin	0.0003	0
bin	0.00031	0
bin	0.00032	0
bin	0.00033	0
bin	0.00034	0
bin	0.00035	0
bin	0.00036	0
bin	0.00037	18
bin	0.00038	0
bin	0.00039	0
bin	0.0004	0
bin	0.00041	0
bin	0.00042	0
bin	0.00043	0
bin	0.00044	0
bin	0.00045	0
bin	0.00046	0
bin	0.00047	0
scalar scenario.client[7].ppp[6].ppp.queue queueLength:max 1
attr interpolationmode sample-hold
attr source "count(packetPushed) - count(packetPopped) - count(packetRemoved) - count(packetDropped)"
attr title "queue length, max"
scalar scenario.client[7].ppp[6].ppp.queue queueLength:timeavg 3.0828151543679e-007
attr interpolationmode sample-hold
attr source "count(packetPushed) - count(packetPopped) - count(packetRemoved) - count(packetDropped)"
attr title "queue length, timeavg"
scalar scenario.client[7].ppp[6].ppp.queue packetPushed:count 76
attr interpolationmode none
attr title "packet pushed, count"
scalar scenario.client[7].ppp[6].ppp.queue packetPushed:sum(packetBytes) 3085
attr interpolationmode none
attr title "packet pushed, sum(packetBytes)"
scalar scenario.client[7].ppp[6].ppp.queue packetDropQueueOverflow:count 0
attr interpolationmode none
attr source packetDropReasonIsQueueOverflow(packetDropped)
attr title "packet drops: queue overflow, count"
scalar scenario.client[7].ppp[6].ppp.queue packetDropQueueOverflow:sum(packetBytes) 0
attr interpolationmode none
attr source packetDropReasonIsQueueOverflow(packetDropped)
attr title "packet drops: queue overflow, sum(packetBytes)"
scalar scenario.client[7].ppp[6].ppp.queue packetRemoved:count 0
attr interpolationmode none
attr title "packets removed, count"
scalar scenario.client[7].ppp[6].ppp.queue packetRemoved:sum(packetBytes) 0
attr interpolationmode none
attr title "packets removed, sum(packetBytes)"
scalar scenario.client[7].ppp[6].ppp txPk:count 76
attr interpolationmode none
attr source packetSentToLower
attr title "packets transmitted, count"
scalar scenario.client[7].ppp[6].ppp txPk:sum(packetBytes) 3617
attr interpolationmode none
attr source packetSentToLower
attr title "packets transmitted, sum(packetBytes)"
scalar scenario.client[7].ppp[6].ppp rcvdPkFromHl:count 76
attr interpolationmode none
attr source packetReceivedFromUpper
attr title "packets received from higher layer, count"
scalar scenario.client[7].ppp[6].ppp rcvdPkFromHl:sum(packetBytes) 3085
attr interpolationmode none
attr source packetReceivedFromUpper
attr title "packets received from higher layer, sum(packetBytes)"
scalar scenario.client[7].ppp[6].ppp passedUpPk:count 76
attr interpolationmode none
attr source packetSentToUpper
attr title "packets passed to higher layer, count"
scalar scenario.client[7].ppp[6].ppp passedUpPk:sum(packetBytes) 3085
attr interpolationmode none
attr source packetSentToUpper
attr title "packets passed to higher layer, sum(packetBytes)"
scalar scenario.client[7].ppp[6].ppp packetDropIncorrectlyReceived:count 0
attr interpolationmode none
attr source packetDropReasonIsIncorrectlyReceived(packetDropped)
attr title "packet drop: incorrectly received, count"
scalar scenario.client[7].ppp[6].ppp packetDropIncorrectlyReceived:sum(packetBytes) 0
attr interpolationmode none
attr source packetDropReasonIsIncorrectlyReceived(packetDropped)
attr title "packet drop: incorrectly received, sum(packetBytes)"
scalar scenario.client[7].ppp[6].ppp packetDropInterfaceDown:count 0
attr interpolationmode none
attr source packetDropReasonIsInterfaceDown(packetDropped)
attr title "packet drop: interface down, count"
scalar scenario.client[7].ppp[6].ppp packetDropInterfaceDown:sum(packetBytes) 0
attr interpolationmode none
attr source packetDropReasonIsInterfaceDown(packetDropped)
attr title "packet drop: interface down, sum(packetBytes)"
scalar scenario.client[7].ppp[6].ppp rxPkOk:count 76
attr interpolationmode none
attr source rxPkOk
attr title "packets received OK, count"
scalar scenario.client[7].ppp[6].ppp rxPkOk:sum(packetBytes) 3617
attr interpolationmode none
attr source rxPkOk
attr title "packets received OK, sum(packetBytes)"
scalar scenario.client[7].ppp[6].ppp transmissionState:timeavg 1.3153325151143e-006
attr interpolationmode sample-hold
attr source transmissionStateChanged
attr title "tx state, timeavg"
scalar scenario.client[7].ipv4.ip packetDropAddressResolutionFailed:count 0
attr interpolationmode none
attr source packetDropReasonIsAddressResolutionFailed(packetDropped)
attr title "packet drop: address resolution failed, count"
scalar scenario.client[7].ipv4.ip packetDropAddressResolutionFailed:sum(packetBytes) 0
attr interpolationmode none
attr source packetDropReasonIsAddressResolutionFailed(packetDropped)
attr title "packet drop: address resolution failed, sum(packetBytes)"
scalar scenario.client[7].ipv4.ip packetDropHopLimitReached:count 0
attr interpolationmode none
attr source packetDropReasonIsHopLimitReached(packetDropped)
attr title "packet drop: hop limit reached, count"
scalar scenario.client[7].ipv4.ip packetDropHopLimitReached:sum(packetBytes) 0
attr interpolationmode none
attr source packetDropReasonIsHopLimitReached(packetDropped)
attr title "packet drop: hop limit reached, sum(packetBytes)"
scalar scenario.client[7].ipv4.ip packetDropForwardingDisabled:count 0
attr interpolationmode none
attr source packetDropReasonIsForwardingDisabled(packetDropped)
attr title "packet drop: forwarding disabled, count"
scalar scenario.client[7].ipv4.ip packetDropForwardingDisabled:sum(packetBytes) 0
attr interpolationmode none
attr source packetDropReasonIsForwardingDisabled(packetDropped)
attr title "packet drop: forwarding disabled, sum(packetBytes)"
scalar scenario.client[7].ipv4.ip packetDropNoInterfaceFound:count 0
attr interpolationmode none
attr source packetDropReasonIsNoInterfaceFound(packetDropped)
attr title "packet drop: no interface found, count"
scalar scenario.client[7].ipv4.ip packetDropNoInterfaceFound:sum(packetBytes) 0
attr interpolationmode none
attr source packetDropReasonIsNoInterfaceFound(packetDropped)
attr title "packet drop: no interface found, sum(packetBytes)"
scalar scenario.client[7].ipv4.ip packetDropNoRouteFound:count 0
attr interpolationmode none
attr source packetDropReasonIsNoRouteFound(packetDropped)
attr title "packet drop: no route found, count"
scalar scenario.client[7].ipv4.ip packetDropNoRouteFound:sum(packetBytes) 0
attr interpolationmode none
attr source packetDropReasonIsNoRouteFound(packetDropped)
attr title "packet drop: no route found, sum(packetBytes)"
scalar scenario.client[7].ipv4.ip packetDropUndefined:count 0
attr interpolationmode none
attr source packetDropReasonIsUndefined(packetDropped)
attr title "packet drop: undefined, count"
scalar scenario.client[7].ipv4.ip packetDropUndefined:sum(packetBytes) 0
attr interpolationmode none
attr source packetDropReasonIsUndefined(packetDropped)
attr title "packet drop: undefined, sum(packetBytes)"
scalar scenario.client[7].ipv4.arp arpReplySent:count 0
attr source arpReplySent
attr title "ARP replies sent, count"
scalar scenario.client[7].ipv4.arp arpReplySent:sum(packetBytes) 0
attr source arpReplySent
attr title "ARP replies sent, sum(packetBytes)"
scalar scenario.client[7].ipv4.arp arpRequestSent:count 0
attr source arpRequestSent
attr title "ARP request sent, count"
scalar scenario.client[7].ipv4.arp arpRequestSent:sum(packetBytes) 0
attr source arpRequestSent
attr title "ARP request sent, sum(packetBytes)"
scalar scenario.client[7].ipv4.arp arpResolutionFailed:count 0
attr title "ARP failed resolutions, count"
scalar scenario.client[7].ipv4.arp arpResolutionCompleted:count 0
attr title "ARP completed resolutions, count"
scalar scenario.client[7].ipv4.arp arpResolutionInitiated:count 0
attr title "ARP initiated resolutions, count"
scalar scenario.client[7].udp packetReceived:count 0
attr interpolationmode none
attr source packetReceived
attr title "packets received, count"
scalar scenario.client[7].udp packetReceived:sum(packetBytes) 0
attr interpolationmode none
attr source packetReceived
attr title "packets received, sum(packetBytes)"
scalar scenario.client[7].udp packetSent:count 0
attr interpolationmode none
attr source packetSent
attr title "packets sent, count"
scalar scenario.client[7].udp packetSent:sum(packetBytes) 0
attr interpolationmode none
attr source packetSent
attr title "packets sent, sum(packetBytes)"
scalar scenario.client[7].udp passedUpPk:count 0
attr interpolationmode none
attr source packetSentToUpper
attr title "packets passed up, count"
scalar scenario.client[7].udp droppedPkWrongPort:count 0
attr interpolationmode none
attr source packetDropReasonIsNoPortFound(packetDropped)
attr title "packets dropped (wrong port), count"
scalar scenario.client[7].udp droppedPkBadChecksum:count 0
attr interpolationmode none
attr source packetDropReasonIsIncorrectlyReceived(packetDropped)
attr title "packets dropped (checksum error), count"

