file 335104 1644250557                                          
version 2
run BROADCAST5c-0-20220207-17:15:55-4392
attr configname BROADCAST5c
attr datetime 20220207-17:15:55
attr experiment BROADCAST5c
attr inifile omnetpp.ini
attr iterationvars ""
attr iterationvarsf ""
attr measurement ""
attr network scenario
attr processid 4392
attr repetition 0
attr replication #0
attr resultdir results
attr runnumber 0
attr seedset 0
param *.n 5
param **.client[*].app[0].nPar 5
param **.client[*].app[0].nNPar 1
param **.client[0].app[0].numMsg 4
param **.client[0].app[0].sendFrequency 2.5
param **.client[0].app[0].startSend 0.0
param **.client[4].app[0].join 2.0
param **.client[3].app[0].leave 0.5
param **.ppp[*].ppp.queue.typename "\"DropTailQueue\""
param **.tcp.typename "\"Tcp\""
param **.tcp.nagleEnabled false
param **.client[*].app[*].fPar 0
param **.numApps 1
param **.client[*].app[*].typename "\"Node\""
param **.client[*].app[0].localPort index+1000
param **.client[*].app[0].localPortL 1234
param **.client[*].app[0].connectAddress "\"\""
param **.client[*].app[0].connectPort 1234

vector 0 scenario.client[0].ppp[0].ppp transmissionState:vector ETV
attr interpolationmode sample-hold
attr source transmissionStateChanged
attr title "tx state, vector"
vector 1 scenario.client[0].ppp[1].ppp transmissionState:vector ETV
attr interpolationmode sample-hold
attr source transmissionStateChanged
attr title "tx state, vector"
vector 2 scenario.client[0].ppp[2].ppp transmissionState:vector ETV
attr interpolationmode sample-hold
attr source transmissionStateChanged
attr title "tx state, vector"
vector 3 scenario.client[0].ppp[3].ppp transmissionState:vector ETV
attr interpolationmode sample-hold
attr source transmissionStateChanged
attr title "tx state, vector"
vector 4 scenario.client[1].ppp[0].ppp transmissionState:vector ETV
attr interpolationmode sample-hold
attr source transmissionStateChanged
attr title "tx state, vector"
vector 5 scenario.client[1].ppp[1].ppp transmissionState:vector ETV
attr interpolationmode sample-hold
attr source transmissionStateChanged
attr title "tx state, vector"
vector 6 scenario.client[1].ppp[2].ppp transmissionState:vector ETV
attr interpolationmode sample-hold
attr source transmissionStateChanged
attr title "tx state, vector"
vector 7 scenario.client[1].ppp[3].ppp transmissionState:vector ETV
attr interpolationmode sample-hold
attr source transmissionStateChanged
attr title "tx state, vector"
vector 8 scenario.client[2].ppp[0].ppp transmissionState:vector ETV
attr interpolationmode sample-hold
attr source transmissionStateChanged
attr title "tx state, vector"
vector 9 scenario.client[2].ppp[1].ppp transmissionState:vector ETV
attr interpolationmode sample-hold
attr source transmissionStateChanged
attr title "tx state, vector"
vector 10 scenario.client[2].ppp[2].ppp transmissionState:vector ETV
attr interpolationmode sample-hold
attr source transmissionStateChanged
attr title "tx state, vector"
vector 11 scenario.client[2].ppp[3].ppp transmissionState:vector ETV
attr interpolationmode sample-hold
attr source transmissionStateChanged
attr title "tx state, vector"
vector 12 scenario.client[3].ppp[0].ppp transmissionState:vector ETV
attr interpolationmode sample-hold
attr source transmissionStateChanged
attr title "tx state, vector"
vector 13 scenario.client[3].ppp[1].ppp transmissionState:vector ETV
attr interpolationmode sample-hold
attr source transmissionStateChanged
attr title "tx state, vector"
vector 14 scenario.client[3].ppp[2].ppp transmissionState:vector ETV
attr interpolationmode sample-hold
attr source transmissionStateChanged
attr title "tx state, vector"
vector 15 scenario.client[3].ppp[3].ppp transmissionState:vector ETV
attr interpolationmode sample-hold
attr source transmissionStateChanged
attr title "tx state, vector"
vector 16 scenario.client[4].ppp[0].ppp transmissionState:vector ETV
attr interpolationmode sample-hold
attr source transmissionStateChanged
attr title "tx state, vector"
vector 17 scenario.client[4].ppp[1].ppp transmissionState:vector ETV
attr interpolationmode sample-hold
attr source transmissionStateChanged
attr title "tx state, vector"
vector 18 scenario.client[4].ppp[2].ppp transmissionState:vector ETV
attr interpolationmode sample-hold
attr source transmissionStateChanged
attr title "tx state, vector"
vector 19 scenario.client[4].ppp[3].ppp transmissionState:vector ETV
attr interpolationmode sample-hold
attr source transmissionStateChanged
attr title "tx state, vector"
vector 20 scenario.client[0].tcp.conn-25 tcpRcvQueueBytes:vector ETV
attr interpolationmode sample-hold
vector 21 scenario.client[0].tcp.conn-25 rcvAdv:vector ETV
attr interpolationmode sample-hold
vector 22 scenario.client[0].tcp.conn-25 rcvWnd:vector ETV
attr interpolationmode sample-hold
vector 23 scenario.client[0].tcp.conn-25 sndAck:vector ETV
attr interpolationmode sample-hold
vector 24 scenario.client[0].ppp[0].ppp rcvdPkFromHl:vector(packetBytes) ETV
attr interpolationmode none
attr source packetReceivedFromUpper
attr title "packets received from higher layer, vector(packetBytes)"
vector 25 scenario.client[0].ppp[0].ppp.queue packetPushed:vector(packetBytes) ETV
attr interpolationmode none
attr title "packet pushed, vector(packetBytes)"
vector 26 scenario.client[0].ppp[0].ppp.queue queueLength:vector ETV
attr interpolationmode sample-hold
attr source "count(packetPushed) - count(packetPopped) - count(packetRemoved) - count(packetDropped)"
attr title "queue length, vector"
vector 27 scenario.client[0].ppp[0].ppp.queue packetPopped:vector(packetBytes) ETV
attr interpolationmode none
attr title "packet popped, vector(packetBytes)"
vector 28 scenario.client[0].ppp[0].ppp.queue queueingTime:vector ETV
attr interpolationmode none
attr source queueingTime(packetPopped)
attr title "queueing times, vector"
attr unit s
vector 29 scenario.client[0].ppp[0].ppp txPk:vector(packetBytes) ETV
attr interpolationmode none
attr source packetSentToLower
attr title "packets transmitted, vector(packetBytes)"
vector 30 scenario.client[1].ppp[0].ppp rxPkOk:vector(packetBytes) ETV
attr interpolationmode none
attr source rxPkOk
attr title "packets received OK, vector(packetBytes)"
vector 31 scenario.client[1].ppp[0].ppp passedUpPk:vector(packetBytes) ETV
attr interpolationmode none
attr source packetSentToUpper
attr title "packets passed to higher layer, vector(packetBytes)"
vector 32 scenario.client[1].tcp.conn-1 rcvSeq:vector ETV
attr interpolationmode sample-hold
vector 33 scenario.client[1].tcp.conn-1 rcvAck:vector ETV
attr interpolationmode sample-hold
vector 34 scenario.client[1].tcp.conn-26 rcvAdv:vector ETV
attr interpolationmode sample-hold
vector 35 scenario.client[1].tcp.conn-26 sndWnd:vector ETV
attr interpolationmode sample-hold
vector 36 scenario.client[1].tcp.conn-26 tcpRcvQueueBytes:vector ETV
attr interpolationmode sample-hold
vector 37 scenario.client[1].tcp.conn-26 rcvWnd:vector ETV
attr interpolationmode sample-hold
vector 38 scenario.client[1].tcp.conn-26 sndAck:vector ETV
attr interpolationmode sample-hold
vector 39 scenario.client[1].ppp[0].ppp rcvdPkFromHl:vector(packetBytes) ETV
attr interpolationmode none
attr source packetReceivedFromUpper
attr title "packets received from higher layer, vector(packetBytes)"
vector 40 scenario.client[1].ppp[0].ppp.queue packetPushed:vector(packetBytes) ETV
attr interpolationmode none
attr title "packet pushed, vector(packetBytes)"
vector 41 scenario.client[1].ppp[0].ppp.queue queueLength:vector ETV
attr interpolationmode sample-hold
attr source "count(packetPushed) - count(packetPopped) - count(packetRemoved) - count(packetDropped)"
attr title "queue length, vector"
vector 42 scenario.client[1].ppp[0].ppp.queue packetPopped:vector(packetBytes) ETV
attr interpolationmode none
attr title "packet popped, vector(packetBytes)"
vector 43 scenario.client[1].ppp[0].ppp.queue queueingTime:vector ETV
attr interpolationmode none
attr source queueingTime(packetPopped)
attr title "queueing times, vector"
attr unit s
vector 44 scenario.client[1].ppp[0].ppp txPk:vector(packetBytes) ETV
attr interpolationmode none
attr source packetSentToLower
attr title "packets transmitted, vector(packetBytes)"
vector 45 scenario.client[0].ppp[0].ppp rxPkOk:vector(packetBytes) ETV
attr interpolationmode none
attr source rxPkOk
attr title "packets received OK, vector(packetBytes)"
vector 46 scenario.client[0].ppp[0].ppp passedUpPk:vector(packetBytes) ETV
attr interpolationmode none
attr source packetSentToUpper
attr title "packets passed to higher layer, vector(packetBytes)"
vector 47 scenario.client[0].tcp.conn-25 rcvSeq:vector ETV
attr interpolationmode sample-hold
vector 48 scenario.client[0].tcp.conn-25 rcvAck:vector ETV
attr interpolationmode sample-hold
vector 49 scenario.client[0].tcp.conn-25 sndWnd:vector ETV
attr interpolationmode sample-hold
vector 50 scenario.client[0].tcp.conn-25 unacked:vector ETV
attr interpolationmode sample-hold
vector 51 scenario.client[1].tcp.conn-26 rcvSeq:vector ETV
attr interpolationmode sample-hold
vector 52 scenario.client[1].tcp.conn-26 rcvAck:vector ETV
attr interpolationmode sample-hold
vector 53 scenario.client[1].tcp.conn-26 unacked:vector ETV
attr interpolationmode sample-hold
vector 54 scenario.client[1].tcp.conn-26 cwnd:vector ETV
attr interpolationmode sample-hold
vector 55 scenario.client[1].tcp.conn-26 ssthresh:vector ETV
attr interpolationmode sample-hold
vector 56 scenario.client[1].tcp.conn-26 dupAcks:vector ETV
attr interpolationmode sample-hold
vector 57 scenario.client[1].tcp.conn-27 tcpRcvQueueBytes:vector ETV
attr interpolationmode sample-hold
vector 58 scenario.client[1].tcp.conn-27 rcvAdv:vector ETV
attr interpolationmode sample-hold
vector 59 scenario.client[1].tcp.conn-27 rcvWnd:vector ETV
attr interpolationmode sample-hold
vector 60 scenario.client[1].tcp.conn-27 sndAck:vector ETV
attr interpolationmode sample-hold
vector 61 scenario.client[0].tcp.conn-25 rtt:vector ETV
attr interpolationmode sample-hold
vector 62 scenario.client[0].tcp.conn-25 srtt:vector ETV
attr interpolationmode sample-hold
vector 63 scenario.client[0].tcp.conn-25 rttvar:vector ETV
attr interpolationmode sample-hold
vector 64 scenario.client[0].tcp.conn-25 rto:vector ETV
attr interpolationmode sample-hold
vector 65 scenario.client[0].tcp.conn-25 cwnd:vector ETV
attr interpolationmode sample-hold
vector 66 scenario.client[0].tcp.conn-25 ssthresh:vector ETV
attr interpolationmode sample-hold
vector 67 scenario.client[0].tcp.conn-25 dupAcks:vector ETV
attr interpolationmode sample-hold
vector 68 scenario.client[0].tcp.conn-0 rcvSeq:vector ETV
attr interpolationmode sample-hold
vector 69 scenario.client[0].tcp.conn-0 rcvAck:vector ETV
attr interpolationmode sample-hold
vector 70 scenario.client[0].tcp.conn-28 rcvAdv:vector ETV
attr interpolationmode sample-hold
vector 71 scenario.client[0].tcp.conn-28 sndWnd:vector ETV
attr interpolationmode sample-hold
vector 72 scenario.client[0].tcp.conn-28 tcpRcvQueueBytes:vector ETV
attr interpolationmode sample-hold
vector 73 scenario.client[0].tcp.conn-28 rcvWnd:vector ETV
attr interpolationmode sample-hold
vector 74 scenario.client[0].tcp.conn-28 sndAck:vector ETV
attr interpolationmode sample-hold
vector 75 scenario.client[1].tcp.conn-27 rcvSeq:vector ETV
attr interpolationmode sample-hold
vector 76 scenario.client[1].tcp.conn-27 rcvAck:vector ETV
attr interpolationmode sample-hold
vector 77 scenario.client[1].tcp.conn-27 sndWnd:vector ETV
attr interpolationmode sample-hold
vector 78 scenario.client[1].tcp.conn-27 unacked:vector ETV
attr interpolationmode sample-hold
vector 79 scenario.client[0].tcp.conn-28 rcvSeq:vector ETV
attr interpolationmode sample-hold
vector 80 scenario.client[0].tcp.conn-28 rcvAck:vector ETV
attr interpolationmode sample-hold
vector 81 scenario.client[0].tcp.conn-28 unacked:vector ETV
attr interpolationmode sample-hold
vector 82 scenario.client[0].tcp.conn-28 cwnd:vector ETV
attr interpolationmode sample-hold
vector 83 scenario.client[0].tcp.conn-28 ssthresh:vector ETV
attr interpolationmode sample-hold
vector 84 scenario.client[0].tcp.conn-28 dupAcks:vector ETV
attr interpolationmode sample-hold
vector 85 scenario.client[1].tcp.conn-27 rtt:vector ETV
attr interpolationmode sample-hold
vector 86 scenario.client[1].tcp.conn-27 srtt:vector ETV
attr interpolationmode sample-hold
vector 87 scenario.client[1].tcp.conn-27 rttvar:vector ETV
attr interpolationmode sample-hold
vector 88 scenario.client[1].tcp.conn-27 rto:vector ETV
attr interpolationmode sample-hold
vector 89 scenario.client[1].tcp.conn-27 cwnd:vector ETV
attr interpolationmode sample-hold
vector 90 scenario.client[1].tcp.conn-27 ssthresh:vector ETV
attr interpolationmode sample-hold
vector 91 scenario.client[1].tcp.conn-27 dupAcks:vector ETV
attr interpolationmode sample-hold
vector 92 scenario.client[0].tcp.conn-29 tcpRcvQueueBytes:vector ETV
attr interpolationmode sample-hold
vector 93 scenario.client[0].tcp.conn-29 rcvAdv:vector ETV
attr interpolationmode sample-hold
vector 94 scenario.client[0].tcp.conn-29 rcvWnd:vector ETV
attr interpolationmode sample-hold
vector 95 scenario.client[0].tcp.conn-29 sndAck:vector ETV
attr interpolationmode sample-hold
vector 96 scenario.client[0].ppp[1].ppp rcvdPkFromHl:vector(packetBytes) ETV
attr interpolationmode none
attr source packetReceivedFromUpper
attr title "packets received from higher layer, vector(packetBytes)"
vector 97 scenario.client[0].ppp[1].ppp.queue packetPushed:vector(packetBytes) ETV
attr interpolationmode none
attr title "packet pushed, vector(packetBytes)"
vector 98 scenario.client[0].ppp[1].ppp.queue queueLength:vector ETV
attr interpolationmode sample-hold
attr source "count(packetPushed) - count(packetPopped) - count(packetRemoved) - count(packetDropped)"
attr title "queue length, vector"
vector 99 scenario.client[0].ppp[1].ppp.queue packetPopped:vector(packetBytes) ETV
attr interpolationmode none
attr title "packet popped, vector(packetBytes)"
vector 100 scenario.client[0].ppp[1].ppp.queue queueingTime:vector ETV
attr interpolationmode none
attr source queueingTime(packetPopped)
attr title "queueing times, vector"
attr unit s
vector 101 scenario.client[0].ppp[1].ppp txPk:vector(packetBytes) ETV
attr interpolationmode none
attr source packetSentToLower
attr title "packets transmitted, vector(packetBytes)"
vector 102 scenario.client[2].ppp[0].ppp rxPkOk:vector(packetBytes) ETV
attr interpolationmode none
attr source rxPkOk
attr title "packets received OK, vector(packetBytes)"
vector 103 scenario.client[2].ppp[0].ppp passedUpPk:vector(packetBytes) ETV
attr interpolationmode none
attr source packetSentToUpper
attr title "packets passed to higher layer, vector(packetBytes)"
vector 104 scenario.client[2].tcp.conn-2 rcvSeq:vector ETV
attr interpolationmode sample-hold
vector 105 scenario.client[2].tcp.conn-2 rcvAck:vector ETV
attr interpolationmode sample-hold
vector 106 scenario.client[2].tcp.conn-30 rcvAdv:vector ETV
attr interpolationmode sample-hold
vector 107 scenario.client[2].tcp.conn-30 sndWnd:vector ETV
attr interpolationmode sample-hold
vector 108 scenario.client[2].tcp.conn-30 tcpRcvQueueBytes:vector ETV
attr interpolationmode sample-hold
vector 109 scenario.client[2].tcp.conn-30 rcvWnd:vector ETV
attr interpolationmode sample-hold
vector 110 scenario.client[2].tcp.conn-30 sndAck:vector ETV
attr interpolationmode sample-hold
vector 111 scenario.client[2].ppp[0].ppp rcvdPkFromHl:vector(packetBytes) ETV
attr interpolationmode none
attr source packetReceivedFromUpper
attr title "packets received from higher layer, vector(packetBytes)"
vector 112 scenario.client[2].ppp[0].ppp.queue packetPushed:vector(packetBytes) ETV
attr interpolationmode none
attr title "packet pushed, vector(packetBytes)"
vector 113 scenario.client[2].ppp[0].ppp.queue queueLength:vector ETV
attr interpolationmode sample-hold
attr source "count(packetPushed) - count(packetPopped) - count(packetRemoved) - count(packetDropped)"
attr title "queue length, vector"
vector 114 scenario.client[2].ppp[0].ppp.queue packetPopped:vector(packetBytes) ETV
attr interpolationmode none
attr title "packet popped, vector(packetBytes)"
vector 115 scenario.client[2].ppp[0].ppp.queue queueingTime:vector ETV
attr interpolationmode none
attr source queueingTime(packetPopped)
attr title "queueing times, vector"
attr unit s
vector 116 scenario.client[2].ppp[0].ppp txPk:vector(packetBytes) ETV
attr interpolationmode none
attr source packetSentToLower
attr title "packets transmitted, vector(packetBytes)"
vector 117 scenario.client[0].ppp[1].ppp rxPkOk:vector(packetBytes) ETV
attr interpolationmode none
attr source rxPkOk
attr title "packets received OK, vector(packetBytes)"
vector 118 scenario.client[0].ppp[1].ppp passedUpPk:vector(packetBytes) ETV
attr interpolationmode none
attr source packetSentToUpper
attr title "packets passed to higher layer, vector(packetBytes)"
vector 119 scenario.client[0].tcp.conn-29 rcvSeq:vector ETV
attr interpolationmode sample-hold
vector 120 scenario.client[0].tcp.conn-29 rcvAck:vector ETV
attr interpolationmode sample-hold
vector 121 scenario.client[0].tcp.conn-29 sndWnd:vector ETV
attr interpolationmode sample-hold
vector 122 scenario.client[0].tcp.conn-29 unacked:vector ETV
attr interpolationmode sample-hold
vector 123 scenario.client[2].tcp.conn-30 rcvSeq:vector ETV
attr interpolationmode sample-hold
vector 124 scenario.client[2].tcp.conn-30 rcvAck:vector ETV
attr interpolationmode sample-hold
vector 125 scenario.client[2].tcp.conn-30 unacked:vector ETV
attr interpolationmode sample-hold
vector 126 scenario.client[2].tcp.conn-30 cwnd:vector ETV
attr interpolationmode sample-hold
vector 127 scenario.client[2].tcp.conn-30 ssthresh:vector ETV
attr interpolationmode sample-hold
vector 128 scenario.client[2].tcp.conn-30 dupAcks:vector ETV
attr interpolationmode sample-hold
vector 129 scenario.client[2].tcp.conn-31 tcpRcvQueueBytes:vector ETV
attr interpolationmode sample-hold
vector 130 scenario.client[2].tcp.conn-31 rcvAdv:vector ETV
attr interpolationmode sample-hold
vector 131 scenario.client[2].tcp.conn-31 rcvWnd:vector ETV
attr interpolationmode sample-hold
vector 132 scenario.client[2].tcp.conn-31 sndAck:vector ETV
attr interpolationmode sample-hold
vector 133 scenario.client[0].tcp.conn-29 rtt:vector ETV
attr interpolationmode sample-hold
vector 134 scenario.client[0].tcp.conn-29 srtt:vector ETV
attr interpolationmode sample-hold
vector 135 scenario.client[0].tcp.conn-29 rttvar:vector ETV
attr interpolationmode sample-hold
vector 136 scenario.client[0].tcp.conn-29 rto:vector ETV
attr interpolationmode sample-hold
vector 137 scenario.client[0].tcp.conn-29 cwnd:vector ETV
attr interpolationmode sample-hold
vector 138 scenario.client[0].tcp.conn-29 ssthresh:vector ETV
attr interpolationmode sample-hold
vector 139 scenario.client[0].tcp.conn-29 dupAcks:vector ETV
attr interpolationmode sample-hold
vector 140 scenario.client[0].tcp.conn-32 rcvAdv:vector ETV
attr interpolationmode sample-hold
vector 141 scenario.client[0].tcp.conn-32 sndWnd:vector ETV
attr interpolationmode sample-hold
vector 142 scenario.client[0].tcp.conn-32 tcpRcvQueueBytes:vector ETV
attr interpolationmode sample-hold
vector 143 scenario.client[0].tcp.conn-32 rcvWnd:vector ETV
attr interpolationmode sample-hold
vector 144 scenario.client[0].tcp.conn-32 sndAck:vector ETV
attr interpolationmode sample-hold
vector 145 scenario.client[2].tcp.conn-31 rcvSeq:vector ETV
attr interpolationmode sample-hold
vector 146 scenario.client[2].tcp.conn-31 rcvAck:vector ETV
attr interpolationmode sample-hold
vector 147 scenario.client[2].tcp.conn-31 sndWnd:vector ETV
attr interpolationmode sample-hold
vector 148 scenario.client[2].tcp.conn-31 unacked:vector ETV
attr interpolationmode sample-hold
vector 149 scenario.client[0].tcp.conn-32 rcvSeq:vector ETV
attr interpolationmode sample-hold
vector 150 scenario.client[0].tcp.conn-32 rcvAck:vector ETV
attr interpolationmode sample-hold
vector 151 scenario.client[0].tcp.conn-32 unacked:vector ETV
attr interpolationmode sample-hold
vector 152 scenario.client[0].tcp.conn-32 cwnd:vector ETV
attr interpolationmode sample-hold
vector 153 scenario.client[0].tcp.conn-32 ssthresh:vector ETV
attr interpolationmode sample-hold
vector 154 scenario.client[0].tcp.conn-32 dupAcks:vector ETV
attr interpolationmode sample-hold
vector 155 scenario.client[2].tcp.conn-31 rtt:vector ETV
attr interpolationmode sample-hold
vector 156 scenario.client[2].tcp.conn-31 srtt:vector ETV
attr interpolationmode sample-hold
vector 157 scenario.client[2].tcp.conn-31 rttvar:vector ETV
attr interpolationmode sample-hold
vector 158 scenario.client[2].tcp.conn-31 rto:vector ETV
attr interpolationmode sample-hold
vector 159 scenario.client[2].tcp.conn-31 cwnd:vector ETV
attr interpolationmode sample-hold
vector 160 scenario.client[2].tcp.conn-31 ssthresh:vector ETV
attr interpolationmode sample-hold
vector 161 scenario.client[2].tcp.conn-31 dupAcks:vector ETV
attr interpolationmode sample-hold
vector 162 scenario.client[3].tcp.conn-33 tcpRcvQueueBytes:vector ETV
attr interpolationmode sample-hold
vector 163 scenario.client[3].tcp.conn-33 rcvAdv:vector ETV
attr interpolationmode sample-hold
vector 164 scenario.client[3].tcp.conn-33 rcvWnd:vector ETV
attr interpolationmode sample-hold
vector 165 scenario.client[3].tcp.conn-33 sndAck:vector ETV
attr interpolationmode sample-hold
vector 166 scenario.client[3].ppp[0].ppp rcvdPkFromHl:vector(packetBytes) ETV
attr interpolationmode none
attr source packetReceivedFromUpper
attr title "packets received from higher layer, vector(packetBytes)"
vector 167 scenario.client[3].ppp[0].ppp.queue packetPushed:vector(packetBytes) ETV
attr interpolationmode none
attr title "packet pushed, vector(packetBytes)"
vector 168 scenario.client[3].ppp[0].ppp.queue queueLength:vector ETV
attr interpolationmode sample-hold
attr source "count(packetPushed) - count(packetPopped) - count(packetRemoved) - count(packetDropped)"
attr title "queue length, vector"
vector 169 scenario.client[3].ppp[0].ppp.queue packetPopped:vector(packetBytes) ETV
attr interpolationmode none
attr title "packet popped, vector(packetBytes)"
vector 170 scenario.client[3].ppp[0].ppp.queue queueingTime:vector ETV
attr interpolationmode none
attr source queueingTime(packetPopped)
attr title "queueing times, vector"
attr unit s
vector 171 scenario.client[3].ppp[0].ppp txPk:vector(packetBytes) ETV
attr interpolationmode none
attr source packetSentToLower
attr title "packets transmitted, vector(packetBytes)"
vector 172 scenario.client[0].ppp[2].ppp rxPkOk:vector(packetBytes) ETV
attr interpolationmode none
attr source rxPkOk
attr title "packets received OK, vector(packetBytes)"
vector 173 scenario.client[0].ppp[2].ppp passedUpPk:vector(packetBytes) ETV
attr interpolationmode none
attr source packetSentToUpper
attr title "packets passed to higher layer, vector(packetBytes)"
vector 174 scenario.client[0].tcp.conn-34 rcvAdv:vector ETV
attr interpolationmode sample-hold
vector 175 scenario.client[0].tcp.conn-34 sndWnd:vector ETV
attr interpolationmode sample-hold
vector 176 scenario.client[0].tcp.conn-34 tcpRcvQueueBytes:vector ETV
attr interpolationmode sample-hold
vector 177 scenario.client[0].tcp.conn-34 rcvWnd:vector ETV
attr interpolationmode sample-hold
vector 178 scenario.client[0].tcp.conn-34 sndAck:vector ETV
attr interpolationmode sample-hold
vector 179 scenario.client[0].ppp[2].ppp rcvdPkFromHl:vector(packetBytes) ETV
attr interpolationmode none
attr source packetReceivedFromUpper
attr title "packets received from higher layer, vector(packetBytes)"
vector 180 scenario.client[0].ppp[2].ppp.queue packetPushed:vector(packetBytes) ETV
attr interpolationmode none
attr title "packet pushed, vector(packetBytes)"
vector 181 scenario.client[0].ppp[2].ppp.queue queueLength:vector ETV
attr interpolationmode sample-hold
attr source "count(packetPushed) - count(packetPopped) - count(packetRemoved) - count(packetDropped)"
attr title "queue length, vector"
vector 182 scenario.client[0].ppp[2].ppp.queue packetPopped:vector(packetBytes) ETV
attr interpolationmode none
attr title "packet popped, vector(packetBytes)"
vector 183 scenario.client[0].ppp[2].ppp.queue queueingTime:vector ETV
attr interpolationmode none
attr source queueingTime(packetPopped)
attr title "queueing times, vector"
attr unit s
vector 184 scenario.client[0].ppp[2].ppp txPk:vector(packetBytes) ETV
attr interpolationmode none
attr source packetSentToLower
attr title "packets transmitted, vector(packetBytes)"
vector 185 scenario.client[3].ppp[0].ppp rxPkOk:vector(packetBytes) ETV
attr interpolationmode none
attr source rxPkOk
attr title "packets received OK, vector(packetBytes)"
vector 186 scenario.client[3].ppp[0].ppp passedUpPk:vector(packetBytes) ETV
attr interpolationmode none
attr source packetSentToUpper
attr title "packets passed to higher layer, vector(packetBytes)"
vector 187 scenario.client[3].tcp.conn-33 rcvSeq:vector ETV
attr interpolationmode sample-hold
vector 188 scenario.client[3].tcp.conn-33 rcvAck:vector ETV
attr interpolationmode sample-hold
vector 189 scenario.client[3].tcp.conn-33 sndWnd:vector ETV
attr interpolationmode sample-hold
vector 190 scenario.client[3].tcp.conn-33 unacked:vector ETV
attr interpolationmode sample-hold
vector 191 scenario.client[0].tcp.conn-34 rcvSeq:vector ETV
attr interpolationmode sample-hold
vector 192 scenario.client[0].tcp.conn-34 rcvAck:vector ETV
attr interpolationmode sample-hold
vector 193 scenario.client[0].tcp.conn-34 unacked:vector ETV
attr interpolationmode sample-hold
vector 194 scenario.client[0].tcp.conn-34 cwnd:vector ETV
attr interpolationmode sample-hold
vector 195 scenario.client[0].tcp.conn-34 ssthresh:vector ETV
attr interpolationmode sample-hold
vector 196 scenario.client[0].tcp.conn-34 dupAcks:vector ETV
attr interpolationmode sample-hold
vector 197 scenario.client[3].tcp.conn-33 rtt:vector ETV
attr interpolationmode sample-hold
vector 198 scenario.client[3].tcp.conn-33 srtt:vector ETV
attr interpolationmode sample-hold
vector 199 scenario.client[3].tcp.conn-33 rttvar:vector ETV
attr interpolationmode sample-hold
vector 200 scenario.client[3].tcp.conn-33 rto:vector ETV
attr interpolationmode sample-hold
vector 201 scenario.client[3].tcp.conn-33 cwnd:vector ETV
attr interpolationmode sample-hold
vector 202 scenario.client[3].tcp.conn-33 ssthresh:vector ETV
attr interpolationmode sample-hold
vector 203 scenario.client[3].tcp.conn-33 dupAcks:vector ETV
attr interpolationmode sample-hold
vector 204 scenario.client[0].tcp.conn-35 tcpRcvQueueBytes:vector ETV
attr interpolationmode sample-hold
vector 205 scenario.client[0].tcp.conn-35 rcvAdv:vector ETV
attr interpolationmode sample-hold
vector 206 scenario.client[0].tcp.conn-35 rcvWnd:vector ETV
attr interpolationmode sample-hold
vector 207 scenario.client[0].tcp.conn-35 sndAck:vector ETV
attr interpolationmode sample-hold
vector 208 scenario.client[3].tcp.conn-3 rcvSeq:vector ETV
attr interpolationmode sample-hold
vector 209 scenario.client[3].tcp.conn-3 rcvAck:vector ETV
attr interpolationmode sample-hold
vector 210 scenario.client[3].tcp.conn-36 rcvAdv:vector ETV
attr interpolationmode sample-hold
vector 211 scenario.client[3].tcp.conn-36 sndWnd:vector ETV
attr interpolationmode sample-hold
vector 212 scenario.client[3].tcp.conn-36 tcpRcvQueueBytes:vector ETV
attr interpolationmode sample-hold
vector 213 scenario.client[3].tcp.conn-36 rcvWnd:vector ETV
attr interpolationmode sample-hold
vector 214 scenario.client[3].tcp.conn-36 sndAck:vector ETV
attr interpolationmode sample-hold
vector 215 scenario.client[0].tcp.conn-35 rcvSeq:vector ETV
attr interpolationmode sample-hold
vector 216 scenario.client[0].tcp.conn-35 rcvAck:vector ETV
attr interpolationmode sample-hold
vector 217 scenario.client[0].tcp.conn-35 sndWnd:vector ETV
attr interpolationmode sample-hold
vector 218 scenario.client[0].tcp.conn-35 unacked:vector ETV
attr interpolationmode sample-hold
vector 219 scenario.client[3].tcp.conn-36 rcvSeq:vector ETV
attr interpolationmode sample-hold
vector 220 scenario.client[3].tcp.conn-36 rcvAck:vector ETV
attr interpolationmode sample-hold
vector 221 scenario.client[3].tcp.conn-36 unacked:vector ETV
attr interpolationmode sample-hold
vector 222 scenario.client[3].tcp.conn-36 cwnd:vector ETV
attr interpolationmode sample-hold
vector 223 scenario.client[3].tcp.conn-36 ssthresh:vector ETV
attr interpolationmode sample-hold
vector 224 scenario.client[3].tcp.conn-36 dupAcks:vector ETV
attr interpolationmode sample-hold
vector 225 scenario.client[0].tcp.conn-35 rtt:vector ETV
attr interpolationmode sample-hold
vector 226 scenario.client[0].tcp.conn-35 srtt:vector ETV
attr interpolationmode sample-hold
vector 227 scenario.client[0].tcp.conn-35 rttvar:vector ETV
attr interpolationmode sample-hold
vector 228 scenario.client[0].tcp.conn-35 rto:vector ETV
attr interpolationmode sample-hold
vector 229 scenario.client[0].tcp.conn-35 cwnd:vector ETV
attr interpolationmode sample-hold
vector 230 scenario.client[0].tcp.conn-35 ssthresh:vector ETV
attr interpolationmode sample-hold
vector 231 scenario.client[0].tcp.conn-35 dupAcks:vector ETV
attr interpolationmode sample-hold
vector 232 scenario.client[3].tcp.conn-37 tcpRcvQueueBytes:vector ETV
attr interpolationmode sample-hold
vector 233 scenario.client[3].tcp.conn-37 rcvAdv:vector ETV
attr interpolationmode sample-hold
vector 234 scenario.client[3].tcp.conn-37 rcvWnd:vector ETV
attr interpolationmode sample-hold
vector 235 scenario.client[3].tcp.conn-37 sndAck:vector ETV
attr interpolationmode sample-hold
vector 236 scenario.client[3].ppp[1].ppp rcvdPkFromHl:vector(packetBytes) ETV
attr interpolationmode none
attr source packetReceivedFromUpper
attr title "packets received from higher layer, vector(packetBytes)"
vector 237 scenario.client[3].ppp[1].ppp.queue packetPushed:vector(packetBytes) ETV
attr interpolationmode none
attr title "packet pushed, vector(packetBytes)"
vector 238 scenario.client[3].ppp[1].ppp.queue queueLength:vector ETV
attr interpolationmode sample-hold
attr source "count(packetPushed) - count(packetPopped) - count(packetRemoved) - count(packetDropped)"
attr title "queue length, vector"
vector 239 scenario.client[3].ppp[1].ppp.queue packetPopped:vector(packetBytes) ETV
attr interpolationmode none
attr title "packet popped, vector(packetBytes)"
vector 240 scenario.client[3].ppp[1].ppp.queue queueingTime:vector ETV
attr interpolationmode none
attr source queueingTime(packetPopped)
attr title "queueing times, vector"
attr unit s
vector 241 scenario.client[3].ppp[1].ppp txPk:vector(packetBytes) ETV
attr interpolationmode none
attr source packetSentToLower
attr title "packets transmitted, vector(packetBytes)"
vector 242 scenario.client[1].ppp[2].ppp rxPkOk:vector(packetBytes) ETV
attr interpolationmode none
attr source rxPkOk
attr title "packets received OK, vector(packetBytes)"
vector 243 scenario.client[1].ppp[2].ppp passedUpPk:vector(packetBytes) ETV
attr interpolationmode none
attr source packetSentToUpper
attr title "packets passed to higher layer, vector(packetBytes)"
vector 244 scenario.client[1].tcp.conn-38 rcvAdv:vector ETV
attr interpolationmode sample-hold
vector 245 scenario.client[1].tcp.conn-38 sndWnd:vector ETV
attr interpolationmode sample-hold
vector 246 scenario.client[1].tcp.conn-38 tcpRcvQueueBytes:vector ETV
attr interpolationmode sample-hold
vector 247 scenario.client[1].tcp.conn-38 rcvWnd:vector ETV
attr interpolationmode sample-hold
vector 248 scenario.client[1].tcp.conn-38 sndAck:vector ETV
attr interpolationmode sample-hold
vector 249 scenario.client[1].ppp[2].ppp rcvdPkFromHl:vector(packetBytes) ETV
attr interpolationmode none
attr source packetReceivedFromUpper
attr title "packets received from higher layer, vector(packetBytes)"
vector 250 scenario.client[1].ppp[2].ppp.queue packetPushed:vector(packetBytes) ETV
attr interpolationmode none
attr title "packet pushed, vector(packetBytes)"
vector 251 scenario.client[1].ppp[2].ppp.queue queueLength:vector ETV
attr interpolationmode sample-hold
attr source "count(packetPushed) - count(packetPopped) - count(packetRemoved) - count(packetDropped)"
attr title "queue length, vector"
vector 252 scenario.client[1].ppp[2].ppp.queue packetPopped:vector(packetBytes) ETV
attr interpolationmode none
attr title "packet popped, vector(packetBytes)"
vector 253 scenario.client[1].ppp[2].ppp.queue queueingTime:vector ETV
attr interpolationmode none
attr source queueingTime(packetPopped)
attr title "queueing times, vector"
attr unit s
vector 254 scenario.client[1].ppp[2].ppp txPk:vector(packetBytes) ETV
attr interpolationmode none
attr source packetSentToLower
attr title "packets transmitted, vector(packetBytes)"
vector 255 scenario.client[3].ppp[1].ppp rxPkOk:vector(packetBytes) ETV
attr interpolationmode none
attr source rxPkOk
attr title "packets received OK, vector(packetBytes)"
vector 256 scenario.client[3].ppp[1].ppp passedUpPk:vector(packetBytes) ETV
attr interpolationmode none
attr source packetSentToUpper
attr title "packets passed to higher layer, vector(packetBytes)"
vector 257 scenario.client[3].tcp.conn-37 rcvSeq:vector ETV
attr interpolationmode sample-hold
vector 258 scenario.client[3].tcp.conn-37 rcvAck:vector ETV
attr interpolationmode sample-hold
vector 259 scenario.client[3].tcp.conn-37 sndWnd:vector ETV
attr interpolationmode sample-hold
vector 260 scenario.client[3].tcp.conn-37 unacked:vector ETV
attr interpolationmode sample-hold
vector 261 scenario.client[1].tcp.conn-38 rcvSeq:vector ETV
attr interpolationmode sample-hold
vector 262 scenario.client[1].tcp.conn-38 rcvAck:vector ETV
attr interpolationmode sample-hold
vector 263 scenario.client[1].tcp.conn-38 unacked:vector ETV
attr interpolationmode sample-hold
vector 264 scenario.client[1].tcp.conn-38 cwnd:vector ETV
attr interpolationmode sample-hold
vector 265 scenario.client[1].tcp.conn-38 ssthresh:vector ETV
attr interpolationmode sample-hold
vector 266 scenario.client[1].tcp.conn-38 dupAcks:vector ETV
attr interpolationmode sample-hold
vector 267 scenario.client[3].tcp.conn-37 rtt:vector ETV
attr interpolationmode sample-hold
vector 268 scenario.client[3].tcp.conn-37 srtt:vector ETV
attr interpolationmode sample-hold
vector 269 scenario.client[3].tcp.conn-37 rttvar:vector ETV
attr interpolationmode sample-hold
vector 270 scenario.client[3].tcp.conn-37 rto:vector ETV
attr interpolationmode sample-hold
vector 271 scenario.client[3].tcp.conn-37 cwnd:vector ETV
attr interpolationmode sample-hold
vector 272 scenario.client[3].tcp.conn-37 ssthresh:vector ETV
attr interpolationmode sample-hold
vector 273 scenario.client[3].tcp.conn-37 dupAcks:vector ETV
attr interpolationmode sample-hold
vector 274 scenario.client[1].tcp.conn-39 tcpRcvQueueBytes:vector ETV
attr interpolationmode sample-hold
vector 275 scenario.client[1].tcp.conn-39 rcvAdv:vector ETV
attr interpolationmode sample-hold
vector 276 scenario.client[1].tcp.conn-39 rcvWnd:vector ETV
attr interpolationmode sample-hold
vector 277 scenario.client[1].tcp.conn-39 sndAck:vector ETV
attr interpolationmode sample-hold
vector 278 scenario.client[3].tcp.conn-40 rcvAdv:vector ETV
attr interpolationmode sample-hold
vector 279 scenario.client[3].tcp.conn-40 sndWnd:vector ETV
attr interpolationmode sample-hold
vector 280 scenario.client[3].tcp.conn-40 tcpRcvQueueBytes:vector ETV
attr interpolationmode sample-hold
vector 281 scenario.client[3].tcp.conn-40 rcvWnd:vector ETV
attr interpolationmode sample-hold
vector 282 scenario.client[3].tcp.conn-40 sndAck:vector ETV
attr interpolationmode sample-hold
vector 283 scenario.client[3].tcp.conn-41 tcpRcvQueueBytes:vector ETV
attr interpolationmode sample-hold
vector 284 scenario.client[3].tcp.conn-41 rcvAdv:vector ETV
attr interpolationmode sample-hold
vector 285 scenario.client[3].tcp.conn-41 rcvWnd:vector ETV
attr interpolationmode sample-hold
vector 286 scenario.client[3].tcp.conn-41 sndAck:vector ETV
attr interpolationmode sample-hold
vector 287 scenario.client[3].ppp[2].ppp rcvdPkFromHl:vector(packetBytes) ETV
attr interpolationmode none
attr source packetReceivedFromUpper
attr title "packets received from higher layer, vector(packetBytes)"
vector 288 scenario.client[3].ppp[2].ppp.queue packetPushed:vector(packetBytes) ETV
attr interpolationmode none
attr title "packet pushed, vector(packetBytes)"
vector 289 scenario.client[3].ppp[2].ppp.queue queueLength:vector ETV
attr interpolationmode sample-hold
attr source "count(packetPushed) - count(packetPopped) - count(packetRemoved) - count(packetDropped)"
attr title "queue length, vector"
vector 290 scenario.client[3].ppp[2].ppp.queue packetPopped:vector(packetBytes) ETV
attr interpolationmode none
attr title "packet popped, vector(packetBytes)"
vector 291 scenario.client[3].ppp[2].ppp.queue queueingTime:vector ETV
attr interpolationmode none
attr source queueingTime(packetPopped)
attr title "queueing times, vector"
attr unit s
vector 292 scenario.client[3].ppp[2].ppp txPk:vector(packetBytes) ETV
attr interpolationmode none
attr source packetSentToLower
attr title "packets transmitted, vector(packetBytes)"
vector 293 scenario.client[1].tcp.conn-39 rcvSeq:vector ETV
attr interpolationmode sample-hold
vector 294 scenario.client[1].tcp.conn-39 rcvAck:vector ETV
attr interpolationmode sample-hold
vector 295 scenario.client[1].tcp.conn-39 sndWnd:vector ETV
attr interpolationmode sample-hold
vector 296 scenario.client[1].tcp.conn-39 unacked:vector ETV
attr interpolationmode sample-hold
vector 297 scenario.client[2].ppp[2].ppp rxPkOk:vector(packetBytes) ETV
attr interpolationmode none
attr source rxPkOk
attr title "packets received OK, vector(packetBytes)"
vector 298 scenario.client[2].ppp[2].ppp passedUpPk:vector(packetBytes) ETV
attr interpolationmode none
attr source packetSentToUpper
attr title "packets passed to higher layer, vector(packetBytes)"
vector 299 scenario.client[2].tcp.conn-42 rcvAdv:vector ETV
attr interpolationmode sample-hold
vector 300 scenario.client[2].tcp.conn-42 sndWnd:vector ETV
attr interpolationmode sample-hold
vector 301 scenario.client[2].tcp.conn-42 tcpRcvQueueBytes:vector ETV
attr interpolationmode sample-hold
vector 302 scenario.client[2].tcp.conn-42 rcvWnd:vector ETV
attr interpolationmode sample-hold
vector 303 scenario.client[2].tcp.conn-42 sndAck:vector ETV
attr interpolationmode sample-hold
vector 304 scenario.client[2].ppp[2].ppp rcvdPkFromHl:vector(packetBytes) ETV
attr interpolationmode none
attr source packetReceivedFromUpper
attr title "packets received from higher layer, vector(packetBytes)"
vector 305 scenario.client[2].ppp[2].ppp.queue packetPushed:vector(packetBytes) ETV
attr interpolationmode none
attr title "packet pushed, vector(packetBytes)"
vector 306 scenario.client[2].ppp[2].ppp.queue queueLength:vector ETV
attr interpolationmode sample-hold
attr source "count(packetPushed) - count(packetPopped) - count(packetRemoved) - count(packetDropped)"
attr title "queue length, vector"
vector 307 scenario.client[2].ppp[2].ppp.queue packetPopped:vector(packetBytes) ETV
attr interpolationmode none
attr title "packet popped, vector(packetBytes)"
vector 308 scenario.client[2].ppp[2].ppp.queue queueingTime:vector ETV
attr interpolationmode none
attr source queueingTime(packetPopped)
attr title "queueing times, vector"
attr unit s
vector 309 scenario.client[2].ppp[2].ppp txPk:vector(packetBytes) ETV
attr interpolationmode none
attr source packetSentToLower
attr title "packets transmitted, vector(packetBytes)"
vector 310 scenario.client[3].tcp.conn-40 rcvSeq:vector ETV
attr interpolationmode sample-hold
vector 311 scenario.client[3].tcp.conn-40 rcvAck:vector ETV
attr interpolationmode sample-hold
vector 312 scenario.client[3].tcp.conn-40 unacked:vector ETV
attr interpolationmode sample-hold
vector 313 scenario.client[3].tcp.conn-40 cwnd:vector ETV
attr interpolationmode sample-hold
vector 314 scenario.client[3].tcp.conn-40 ssthresh:vector ETV
attr interpolationmode sample-hold
vector 315 scenario.client[3].tcp.conn-40 dupAcks:vector ETV
attr interpolationmode sample-hold
vector 316 scenario.client[3].ppp[2].ppp rxPkOk:vector(packetBytes) ETV
attr interpolationmode none
attr source rxPkOk
attr title "packets received OK, vector(packetBytes)"
vector 317 scenario.client[3].ppp[2].ppp passedUpPk:vector(packetBytes) ETV
attr interpolationmode none
attr source packetSentToUpper
attr title "packets passed to higher layer, vector(packetBytes)"
vector 318 scenario.client[3].tcp.conn-41 rcvSeq:vector ETV
attr interpolationmode sample-hold
vector 319 scenario.client[3].tcp.conn-41 rcvAck:vector ETV
attr interpolationmode sample-hold
vector 320 scenario.client[3].tcp.conn-41 sndWnd:vector ETV
attr interpolationmode sample-hold
vector 321 scenario.client[3].tcp.conn-41 unacked:vector ETV
attr interpolationmode sample-hold
vector 322 scenario.client[1].tcp.conn-39 rtt:vector ETV
attr interpolationmode sample-hold
vector 323 scenario.client[1].tcp.conn-39 srtt:vector ETV
attr interpolationmode sample-hold
vector 324 scenario.client[1].tcp.conn-39 rttvar:vector ETV
attr interpolationmode sample-hold
vector 325 scenario.client[1].tcp.conn-39 rto:vector ETV
attr interpolationmode sample-hold
vector 326 scenario.client[1].tcp.conn-39 cwnd:vector ETV
attr interpolationmode sample-hold
vector 327 scenario.client[1].tcp.conn-39 ssthresh:vector ETV
attr interpolationmode sample-hold
vector 328 scenario.client[1].tcp.conn-39 dupAcks:vector ETV
attr interpolationmode sample-hold
vector 329 scenario.client[2].tcp.conn-42 rcvSeq:vector ETV
attr interpolationmode sample-hold
vector 330 scenario.client[2].tcp.conn-42 rcvAck:vector ETV
attr interpolationmode sample-hold
vector 331 scenario.client[2].tcp.conn-42 unacked:vector ETV
attr interpolationmode sample-hold
vector 332 scenario.client[2].tcp.conn-42 cwnd:vector ETV
attr interpolationmode sample-hold
vector 333 scenario.client[2].tcp.conn-42 ssthresh:vector ETV
attr interpolationmode sample-hold
vector 334 scenario.client[2].tcp.conn-42 dupAcks:vector ETV
attr interpolationmode sample-hold
vector 335 scenario.client[3].tcp.conn-41 rtt:vector ETV
attr interpolationmode sample-hold
vector 336 scenario.client[3].tcp.conn-41 srtt:vector ETV
attr interpolationmode sample-hold
vector 337 scenario.client[3].tcp.conn-41 rttvar:vector ETV
attr interpolationmode sample-hold
vector 338 scenario.client[3].tcp.conn-41 rto:vector ETV
attr interpolationmode sample-hold
vector 339 scenario.client[3].tcp.conn-41 cwnd:vector ETV
attr interpolationmode sample-hold
vector 340 scenario.client[3].tcp.conn-41 ssthresh:vector ETV
attr interpolationmode sample-hold
vector 341 scenario.client[3].tcp.conn-41 dupAcks:vector ETV
attr interpolationmode sample-hold
vector 342 scenario.client[2].tcp.conn-43 tcpRcvQueueBytes:vector ETV
attr interpolationmode sample-hold
vector 343 scenario.client[2].tcp.conn-43 rcvAdv:vector ETV
attr interpolationmode sample-hold
vector 344 scenario.client[2].tcp.conn-43 rcvWnd:vector ETV
attr interpolationmode sample-hold
vector 345 scenario.client[2].tcp.conn-43 sndAck:vector ETV
attr interpolationmode sample-hold
vector 346 scenario.client[3].tcp.conn-44 rcvAdv:vector ETV
attr interpolationmode sample-hold
vector 347 scenario.client[3].tcp.conn-44 sndWnd:vector ETV
attr interpolationmode sample-hold
vector 348 scenario.client[3].tcp.conn-44 tcpRcvQueueBytes:vector ETV
attr interpolationmode sample-hold
vector 349 scenario.client[3].tcp.conn-44 rcvWnd:vector ETV
attr interpolationmode sample-hold
vector 350 scenario.client[3].tcp.conn-44 sndAck:vector ETV
attr interpolationmode sample-hold
vector 351 scenario.client[2].tcp.conn-43 rcvSeq:vector ETV
attr interpolationmode sample-hold
vector 352 scenario.client[2].tcp.conn-43 rcvAck:vector ETV
attr interpolationmode sample-hold
vector 353 scenario.client[2].tcp.conn-43 sndWnd:vector ETV
attr interpolationmode sample-hold
vector 354 scenario.client[2].tcp.conn-43 unacked:vector ETV
attr interpolationmode sample-hold
vector 355 scenario.client[3].tcp.conn-44 rcvSeq:vector ETV
attr interpolationmode sample-hold
vector 356 scenario.client[3].tcp.conn-44 rcvAck:vector ETV
attr interpolationmode sample-hold
vector 357 scenario.client[3].tcp.conn-44 unacked:vector ETV
attr interpolationmode sample-hold
vector 358 scenario.client[3].tcp.conn-44 cwnd:vector ETV
attr interpolationmode sample-hold
vector 359 scenario.client[3].tcp.conn-44 ssthresh:vector ETV
attr interpolationmode sample-hold
vector 360 scenario.client[3].tcp.conn-44 dupAcks:vector ETV
attr interpolationmode sample-hold
vector 361 scenario.client[2].tcp.conn-43 rtt:vector ETV
attr interpolationmode sample-hold
vector 362 scenario.client[2].tcp.conn-43 srtt:vector ETV
attr interpolationmode sample-hold
vector 363 scenario.client[2].tcp.conn-43 rttvar:vector ETV
attr interpolationmode sample-hold
vector 364 scenario.client[2].tcp.conn-43 rto:vector ETV
attr interpolationmode sample-hold
vector 365 scenario.client[2].tcp.conn-43 cwnd:vector ETV
attr interpolationmode sample-hold
vector 366 scenario.client[2].tcp.conn-43 ssthresh:vector ETV
attr interpolationmode sample-hold
vector 367 scenario.client[2].tcp.conn-43 dupAcks:vector ETV
attr interpolationmode sample-hold
vector 368 scenario.client[4].tcp.conn-45 tcpRcvQueueBytes:vector ETV
attr interpolationmode sample-hold
vector 369 scenario.client[4].tcp.conn-45 rcvAdv:vector ETV
attr interpolationmode sample-hold
vector 370 scenario.client[4].tcp.conn-45 rcvWnd:vector ETV
attr interpolationmode sample-hold
vector 371 scenario.client[4].tcp.conn-45 sndAck:vector ETV
attr interpolationmode sample-hold
vector 372 scenario.client[4].ppp[0].ppp rcvdPkFromHl:vector(packetBytes) ETV
attr interpolationmode none
attr source packetReceivedFromUpper
attr title "packets received from higher layer, vector(packetBytes)"
vector 373 scenario.client[4].ppp[0].ppp.queue packetPushed:vector(packetBytes) ETV
attr interpolationmode none
attr title "packet pushed, vector(packetBytes)"
vector 374 scenario.client[4].ppp[0].ppp.queue queueLength:vector ETV
attr interpolationmode sample-hold
attr source "count(packetPushed) - count(packetPopped) - count(packetRemoved) - count(packetDropped)"
attr title "queue length, vector"
vector 375 scenario.client[4].ppp[0].ppp.queue packetPopped:vector(packetBytes) ETV
attr interpolationmode none
attr title "packet popped, vector(packetBytes)"
vector 376 scenario.client[4].ppp[0].ppp.queue queueingTime:vector ETV
attr interpolationmode none
attr source queueingTime(packetPopped)
attr title "queueing times, vector"
attr unit s
vector 377 scenario.client[4].ppp[0].ppp txPk:vector(packetBytes) ETV
attr interpolationmode none
attr source packetSentToLower
attr title "packets transmitted, vector(packetBytes)"
vector 378 scenario.client[0].ppp[3].ppp rxPkOk:vector(packetBytes) ETV
attr interpolationmode none
attr source rxPkOk
attr title "packets received OK, vector(packetBytes)"
vector 379 scenario.client[0].ppp[3].ppp passedUpPk:vector(packetBytes) ETV
attr interpolationmode none
attr source packetSentToUpper
attr title "packets passed to higher layer, vector(packetBytes)"
vector 380 scenario.client[0].tcp.conn-46 rcvAdv:vector ETV
attr interpolationmode sample-hold
vector 381 scenario.client[0].tcp.conn-46 sndWnd:vector ETV
attr interpolationmode sample-hold
vector 382 scenario.client[0].tcp.conn-46 tcpRcvQueueBytes:vector ETV
attr interpolationmode sample-hold
vector 383 scenario.client[0].tcp.conn-46 rcvWnd:vector ETV
attr interpolationmode sample-hold
vector 384 scenario.client[0].tcp.conn-46 sndAck:vector ETV
attr interpolationmode sample-hold
vector 385 scenario.client[0].ppp[3].ppp rcvdPkFromHl:vector(packetBytes) ETV
attr interpolationmode none
attr source packetReceivedFromUpper
attr title "packets received from higher layer, vector(packetBytes)"
vector 386 scenario.client[0].ppp[3].ppp.queue packetPushed:vector(packetBytes) ETV
attr interpolationmode none
attr title "packet pushed, vector(packetBytes)"
vector 387 scenario.client[0].ppp[3].ppp.queue queueLength:vector ETV
attr interpolationmode sample-hold
attr source "count(packetPushed) - count(packetPopped) - count(packetRemoved) - count(packetDropped)"
attr title "queue length, vector"
vector 388 scenario.client[0].ppp[3].ppp.queue packetPopped:vector(packetBytes) ETV
attr interpolationmode none
attr title "packet popped, vector(packetBytes)"
vector 389 scenario.client[0].ppp[3].ppp.queue queueingTime:vector ETV
attr interpolationmode none
attr source queueingTime(packetPopped)
attr title "queueing times, vector"
attr unit s
vector 390 scenario.client[0].ppp[3].ppp txPk:vector(packetBytes) ETV
attr interpolationmode none
attr source packetSentToLower
attr title "packets transmitted, vector(packetBytes)"
vector 391 scenario.client[4].ppp[0].ppp rxPkOk:vector(packetBytes) ETV
attr interpolationmode none
attr source rxPkOk
attr title "packets received OK, vector(packetBytes)"
vector 392 scenario.client[4].ppp[0].ppp passedUpPk:vector(packetBytes) ETV
attr interpolationmode none
attr source packetSentToUpper
attr title "packets passed to higher layer, vector(packetBytes)"
vector 393 scenario.client[4].tcp.conn-45 rcvSeq:vector ETV
attr interpolationmode sample-hold
vector 394 scenario.client[4].tcp.conn-45 rcvAck:vector ETV
attr interpolationmode sample-hold
vector 395 scenario.client[4].tcp.conn-45 sndWnd:vector ETV
attr interpolationmode sample-hold
vector 396 scenario.client[4].tcp.conn-45 unacked:vector ETV
attr interpolationmode sample-hold
vector 397 scenario.client[0].tcp.conn-46 rcvSeq:vector ETV
attr interpolationmode sample-hold
vector 398 scenario.client[0].tcp.conn-46 rcvAck:vector ETV
attr interpolationmode sample-hold
vector 399 scenario.client[0].tcp.conn-46 unacked:vector ETV
attr interpolationmode sample-hold
vector 400 scenario.client[0].tcp.conn-46 cwnd:vector ETV
attr interpolationmode sample-hold
vector 401 scenario.client[0].tcp.conn-46 ssthresh:vector ETV
attr interpolationmode sample-hold
vector 402 scenario.client[0].tcp.conn-46 dupAcks:vector ETV
attr interpolationmode sample-hold
vector 403 scenario.client[4].tcp.conn-45 rtt:vector ETV
attr interpolationmode sample-hold
vector 404 scenario.client[4].tcp.conn-45 srtt:vector ETV
attr interpolationmode sample-hold
vector 405 scenario.client[4].tcp.conn-45 rttvar:vector ETV
attr interpolationmode sample-hold
vector 406 scenario.client[4].tcp.conn-45 rto:vector ETV
attr interpolationmode sample-hold
vector 407 scenario.client[4].tcp.conn-45 cwnd:vector ETV
attr interpolationmode sample-hold
vector 408 scenario.client[4].tcp.conn-45 ssthresh:vector ETV
attr interpolationmode sample-hold
vector 409 scenario.client[4].tcp.conn-45 dupAcks:vector ETV
attr interpolationmode sample-hold
vector 410 scenario.client[4].tcp.conn-47 tcpRcvQueueBytes:vector ETV
attr interpolationmode sample-hold
vector 411 scenario.client[4].tcp.conn-47 rcvAdv:vector ETV
attr interpolationmode sample-hold
vector 412 scenario.client[4].tcp.conn-47 rcvWnd:vector ETV
attr interpolationmode sample-hold
vector 413 scenario.client[4].tcp.conn-47 sndAck:vector ETV
attr interpolationmode sample-hold
vector 414 scenario.client[4].ppp[1].ppp rcvdPkFromHl:vector(packetBytes) ETV
attr interpolationmode none
attr source packetReceivedFromUpper
attr title "packets received from higher layer, vector(packetBytes)"
vector 415 scenario.client[4].ppp[1].ppp.queue packetPushed:vector(packetBytes) ETV
attr interpolationmode none
attr title "packet pushed, vector(packetBytes)"
vector 416 scenario.client[4].ppp[1].ppp.queue queueLength:vector ETV
attr interpolationmode sample-hold
attr source "count(packetPushed) - count(packetPopped) - count(packetRemoved) - count(packetDropped)"
attr title "queue length, vector"
vector 417 scenario.client[4].ppp[1].ppp.queue packetPopped:vector(packetBytes) ETV
attr interpolationmode none
attr title "packet popped, vector(packetBytes)"
vector 418 scenario.client[4].ppp[1].ppp.queue queueingTime:vector ETV
attr interpolationmode none
attr source queueingTime(packetPopped)
attr title "queueing times, vector"
attr unit s
vector 419 scenario.client[4].ppp[1].ppp txPk:vector(packetBytes) ETV
attr interpolationmode none
attr source packetSentToLower
attr title "packets transmitted, vector(packetBytes)"
vector 420 scenario.client[1].ppp[3].ppp rxPkOk:vector(packetBytes) ETV
attr interpolationmode none
attr source rxPkOk
attr title "packets received OK, vector(packetBytes)"
vector 421 scenario.client[1].ppp[3].ppp passedUpPk:vector(packetBytes) ETV
attr interpolationmode none
attr source packetSentToUpper
attr title "packets passed to higher layer, vector(packetBytes)"
vector 422 scenario.client[1].tcp.conn-48 rcvAdv:vector ETV
attr interpolationmode sample-hold
vector 423 scenario.client[1].tcp.conn-48 sndWnd:vector ETV
attr interpolationmode sample-hold
vector 424 scenario.client[1].tcp.conn-48 tcpRcvQueueBytes:vector ETV
attr interpolationmode sample-hold
vector 425 scenario.client[1].tcp.conn-48 rcvWnd:vector ETV
attr interpolationmode sample-hold
vector 426 scenario.client[1].tcp.conn-48 sndAck:vector ETV
attr interpolationmode sample-hold
vector 427 scenario.client[1].ppp[3].ppp rcvdPkFromHl:vector(packetBytes) ETV
attr interpolationmode none
attr source packetReceivedFromUpper
attr title "packets received from higher layer, vector(packetBytes)"
vector 428 scenario.client[1].ppp[3].ppp.queue packetPushed:vector(packetBytes) ETV
attr interpolationmode none
attr title "packet pushed, vector(packetBytes)"
vector 429 scenario.client[1].ppp[3].ppp.queue queueLength:vector ETV
attr interpolationmode sample-hold
attr source "count(packetPushed) - count(packetPopped) - count(packetRemoved) - count(packetDropped)"
attr title "queue length, vector"
vector 430 scenario.client[1].ppp[3].ppp.queue packetPopped:vector(packetBytes) ETV
attr interpolationmode none
attr title "packet popped, vector(packetBytes)"
vector 431 scenario.client[1].ppp[3].ppp.queue queueingTime:vector ETV
attr interpolationmode none
attr source queueingTime(packetPopped)
attr title "queueing times, vector"
attr unit s
vector 432 scenario.client[1].ppp[3].ppp txPk:vector(packetBytes) ETV
attr interpolationmode none
attr source packetSentToLower
attr title "packets transmitted, vector(packetBytes)"
vector 433 scenario.client[4].ppp[1].ppp rxPkOk:vector(packetBytes) ETV
attr interpolationmode none
attr source rxPkOk
attr title "packets received OK, vector(packetBytes)"
vector 434 scenario.client[4].ppp[1].ppp passedUpPk:vector(packetBytes) ETV
attr interpolationmode none
attr source packetSentToUpper
attr title "packets passed to higher layer, vector(packetBytes)"
vector 435 scenario.client[4].tcp.conn-47 rcvSeq:vector ETV
attr interpolationmode sample-hold
vector 436 scenario.client[4].tcp.conn-47 rcvAck:vector ETV
attr interpolationmode sample-hold
vector 437 scenario.client[4].tcp.conn-47 sndWnd:vector ETV
attr interpolationmode sample-hold
vector 438 scenario.client[4].tcp.conn-47 unacked:vector ETV
attr interpolationmode sample-hold
vector 439 scenario.client[1].tcp.conn-48 rcvSeq:vector ETV
attr interpolationmode sample-hold
vector 440 scenario.client[1].tcp.conn-48 rcvAck:vector ETV
attr interpolationmode sample-hold
vector 441 scenario.client[1].tcp.conn-48 unacked:vector ETV
attr interpolationmode sample-hold
vector 442 scenario.client[1].tcp.conn-48 cwnd:vector ETV
attr interpolationmode sample-hold
vector 443 scenario.client[1].tcp.conn-48 ssthresh:vector ETV
attr interpolationmode sample-hold
vector 444 scenario.client[1].tcp.conn-48 dupAcks:vector ETV
attr interpolationmode sample-hold
vector 445 scenario.client[4].tcp.conn-47 rtt:vector ETV
attr interpolationmode sample-hold
vector 446 scenario.client[4].tcp.conn-47 srtt:vector ETV
attr interpolationmode sample-hold
vector 447 scenario.client[4].tcp.conn-47 rttvar:vector ETV
attr interpolationmode sample-hold
vector 448 scenario.client[4].tcp.conn-47 rto:vector ETV
attr interpolationmode sample-hold
vector 449 scenario.client[4].tcp.conn-47 cwnd:vector ETV
attr interpolationmode sample-hold
vector 450 scenario.client[4].tcp.conn-47 ssthresh:vector ETV
attr interpolationmode sample-hold
vector 451 scenario.client[4].tcp.conn-47 dupAcks:vector ETV
attr interpolationmode sample-hold
vector 452 scenario.client[1].tcp.conn-49 tcpRcvQueueBytes:vector ETV
attr interpolationmode sample-hold
vector 453 scenario.client[1].tcp.conn-49 rcvAdv:vector ETV
attr interpolationmode sample-hold
vector 454 scenario.client[1].tcp.conn-49 rcvWnd:vector ETV
attr interpolationmode sample-hold
vector 455 scenario.client[1].tcp.conn-49 sndAck:vector ETV
attr interpolationmode sample-hold
vector 456 scenario.client[1].ppp[1].ppp rcvdPkFromHl:vector(packetBytes) ETV
attr interpolationmode none
attr source packetReceivedFromUpper
attr title "packets received from higher layer, vector(packetBytes)"
vector 457 scenario.client[1].ppp[1].ppp.queue packetPushed:vector(packetBytes) ETV
attr interpolationmode none
attr title "packet pushed, vector(packetBytes)"
vector 458 scenario.client[1].ppp[1].ppp.queue queueLength:vector ETV
attr interpolationmode sample-hold
attr source "count(packetPushed) - count(packetPopped) - count(packetRemoved) - count(packetDropped)"
attr title "queue length, vector"
vector 459 scenario.client[1].ppp[1].ppp.queue packetPopped:vector(packetBytes) ETV
attr interpolationmode none
attr title "packet popped, vector(packetBytes)"
vector 460 scenario.client[1].ppp[1].ppp.queue queueingTime:vector ETV
attr interpolationmode none
attr source queueingTime(packetPopped)
attr title "queueing times, vector"
attr unit s
vector 461 scenario.client[1].ppp[1].ppp txPk:vector(packetBytes) ETV
attr interpolationmode none
attr source packetSentToLower
attr title "packets transmitted, vector(packetBytes)"
vector 462 scenario.client[2].ppp[1].ppp rxPkOk:vector(packetBytes) ETV
attr interpolationmode none
attr source rxPkOk
attr title "packets received OK, vector(packetBytes)"
vector 463 scenario.client[2].ppp[1].ppp passedUpPk:vector(packetBytes) ETV
attr interpolationmode none
attr source packetSentToUpper
attr title "packets passed to higher layer, vector(packetBytes)"
vector 464 scenario.client[2].tcp.conn-50 rcvAdv:vector ETV
attr interpolationmode sample-hold
vector 465 scenario.client[2].tcp.conn-50 sndWnd:vector ETV
attr interpolationmode sample-hold
vector 466 scenario.client[2].tcp.conn-50 tcpRcvQueueBytes:vector ETV
attr interpolationmode sample-hold
vector 467 scenario.client[2].tcp.conn-50 rcvWnd:vector ETV
attr interpolationmode sample-hold
vector 468 scenario.client[2].tcp.conn-50 sndAck:vector ETV
attr interpolationmode sample-hold
vector 469 scenario.client[2].ppp[1].ppp rcvdPkFromHl:vector(packetBytes) ETV
attr interpolationmode none
attr source packetReceivedFromUpper
attr title "packets received from higher layer, vector(packetBytes)"
vector 470 scenario.client[2].ppp[1].ppp.queue packetPushed:vector(packetBytes) ETV
attr interpolationmode none
attr title "packet pushed, vector(packetBytes)"
vector 471 scenario.client[2].ppp[1].ppp.queue queueLength:vector ETV
attr interpolationmode sample-hold
attr source "count(packetPushed) - count(packetPopped) - count(packetRemoved) - count(packetDropped)"
attr title "queue length, vector"
vector 472 scenario.client[2].ppp[1].ppp.queue packetPopped:vector(packetBytes) ETV
attr interpolationmode none
attr title "packet popped, vector(packetBytes)"
vector 473 scenario.client[2].ppp[1].ppp.queue queueingTime:vector ETV
attr interpolationmode none
attr source queueingTime(packetPopped)
attr title "queueing times, vector"
attr unit s
vector 474 scenario.client[2].ppp[1].ppp txPk:vector(packetBytes) ETV
attr interpolationmode none
attr source packetSentToLower
attr title "packets transmitted, vector(packetBytes)"
vector 475 scenario.client[1].ppp[1].ppp rxPkOk:vector(packetBytes) ETV
attr interpolationmode none
attr source rxPkOk
attr title "packets received OK, vector(packetBytes)"
vector 476 scenario.client[1].ppp[1].ppp passedUpPk:vector(packetBytes) ETV
attr interpolationmode none
attr source packetSentToUpper
attr title "packets passed to higher layer, vector(packetBytes)"
vector 477 scenario.client[1].tcp.conn-49 rcvSeq:vector ETV
attr interpolationmode sample-hold
vector 478 scenario.client[1].tcp.conn-49 rcvAck:vector ETV
attr interpolationmode sample-hold
vector 479 scenario.client[1].tcp.conn-49 sndWnd:vector ETV
attr interpolationmode sample-hold
vector 480 scenario.client[1].tcp.conn-49 unacked:vector ETV
attr interpolationmode sample-hold
vector 481 scenario.client[2].tcp.conn-50 rcvSeq:vector ETV
attr interpolationmode sample-hold
vector 482 scenario.client[2].tcp.conn-50 rcvAck:vector ETV
attr interpolationmode sample-hold
vector 483 scenario.client[2].tcp.conn-50 unacked:vector ETV
attr interpolationmode sample-hold
vector 484 scenario.client[2].tcp.conn-50 cwnd:vector ETV
attr interpolationmode sample-hold
vector 485 scenario.client[2].tcp.conn-50 ssthresh:vector ETV
attr interpolationmode sample-hold
vector 486 scenario.client[2].tcp.conn-50 dupAcks:vector ETV
attr interpolationmode sample-hold
vector 487 scenario.client[2].tcp.conn-51 tcpRcvQueueBytes:vector ETV
attr interpolationmode sample-hold
vector 488 scenario.client[2].tcp.conn-51 rcvAdv:vector ETV
attr interpolationmode sample-hold
vector 489 scenario.client[2].tcp.conn-51 rcvWnd:vector ETV
attr interpolationmode sample-hold
vector 490 scenario.client[2].tcp.conn-51 sndAck:vector ETV
attr interpolationmode sample-hold
vector 491 scenario.client[1].tcp.conn-49 rtt:vector ETV
attr interpolationmode sample-hold
vector 492 scenario.client[1].tcp.conn-49 srtt:vector ETV
attr interpolationmode sample-hold
vector 493 scenario.client[1].tcp.conn-49 rttvar:vector ETV
attr interpolationmode sample-hold
vector 494 scenario.client[1].tcp.conn-49 rto:vector ETV
attr interpolationmode sample-hold
vector 495 scenario.client[1].tcp.conn-49 cwnd:vector ETV
attr interpolationmode sample-hold
vector 496 scenario.client[1].tcp.conn-49 ssthresh:vector ETV
attr interpolationmode sample-hold
vector 497 scenario.client[1].tcp.conn-49 dupAcks:vector ETV
attr interpolationmode sample-hold
vector 498 scenario.client[1].tcp.conn-52 rcvAdv:vector ETV
attr interpolationmode sample-hold
vector 499 scenario.client[1].tcp.conn-52 sndWnd:vector ETV
attr interpolationmode sample-hold
vector 500 scenario.client[1].tcp.conn-52 tcpRcvQueueBytes:vector ETV
attr interpolationmode sample-hold
vector 501 scenario.client[1].tcp.conn-52 rcvWnd:vector ETV
attr interpolationmode sample-hold
vector 502 scenario.client[1].tcp.conn-52 sndAck:vector ETV
attr interpolationmode sample-hold
vector 503 scenario.client[2].tcp.conn-51 rcvSeq:vector ETV
attr interpolationmode sample-hold
vector 504 scenario.client[2].tcp.conn-51 rcvAck:vector ETV
attr interpolationmode sample-hold
vector 505 scenario.client[2].tcp.conn-51 sndWnd:vector ETV
attr interpolationmode sample-hold
vector 506 scenario.client[2].tcp.conn-51 unacked:vector ETV
attr interpolationmode sample-hold
vector 507 scenario.client[1].tcp.conn-52 rcvSeq:vector ETV
attr interpolationmode sample-hold
vector 508 scenario.client[1].tcp.conn-52 rcvAck:vector ETV
attr interpolationmode sample-hold
vector 509 scenario.client[1].tcp.conn-52 unacked:vector ETV
attr interpolationmode sample-hold
vector 510 scenario.client[1].tcp.conn-52 cwnd:vector ETV
attr interpolationmode sample-hold
vector 511 scenario.client[1].tcp.conn-52 ssthresh:vector ETV
attr interpolationmode sample-hold
vector 512 scenario.client[1].tcp.conn-52 dupAcks:vector ETV
attr interpolationmode sample-hold
vector 513 scenario.client[2].tcp.conn-51 rtt:vector ETV
attr interpolationmode sample-hold
vector 514 scenario.client[2].tcp.conn-51 srtt:vector ETV
attr interpolationmode sample-hold
vector 515 scenario.client[2].tcp.conn-51 rttvar:vector ETV
attr interpolationmode sample-hold
vector 516 scenario.client[2].tcp.conn-51 rto:vector ETV
attr interpolationmode sample-hold
vector 517 scenario.client[2].tcp.conn-51 cwnd:vector ETV
attr interpolationmode sample-hold
vector 518 scenario.client[2].tcp.conn-51 ssthresh:vector ETV
attr interpolationmode sample-hold
vector 519 scenario.client[2].tcp.conn-51 dupAcks:vector ETV
attr interpolationmode sample-hold
vector 520 scenario.client[4].tcp.conn-53 tcpRcvQueueBytes:vector ETV
attr interpolationmode sample-hold
vector 521 scenario.client[4].tcp.conn-53 rcvAdv:vector ETV
attr interpolationmode sample-hold
vector 522 scenario.client[4].tcp.conn-53 rcvWnd:vector ETV
attr interpolationmode sample-hold
vector 523 scenario.client[4].tcp.conn-53 sndAck:vector ETV
attr interpolationmode sample-hold
vector 524 scenario.client[4].ppp[2].ppp rcvdPkFromHl:vector(packetBytes) ETV
attr interpolationmode none
attr source packetReceivedFromUpper
attr title "packets received from higher layer, vector(packetBytes)"
vector 525 scenario.client[4].ppp[2].ppp.queue packetPushed:vector(packetBytes) ETV
attr interpolationmode none
attr title "packet pushed, vector(packetBytes)"
vector 526 scenario.client[4].ppp[2].ppp.queue queueLength:vector ETV
attr interpolationmode sample-hold
attr source "count(packetPushed) - count(packetPopped) - count(packetRemoved) - count(packetDropped)"
attr title "queue length, vector"
vector 527 scenario.client[4].ppp[2].ppp.queue packetPopped:vector(packetBytes) ETV
attr interpolationmode none
attr title "packet popped, vector(packetBytes)"
vector 528 scenario.client[4].ppp[2].ppp.queue queueingTime:vector ETV
attr interpolationmode none
attr source queueingTime(packetPopped)
attr title "queueing times, vector"
attr unit s
vector 529 scenario.client[4].ppp[2].ppp txPk:vector(packetBytes) ETV
attr interpolationmode none
attr source packetSentToLower
attr title "packets transmitted, vector(packetBytes)"
vector 530 scenario.client[2].ppp[3].ppp rxPkOk:vector(packetBytes) ETV
attr interpolationmode none
attr source rxPkOk
attr title "packets received OK, vector(packetBytes)"
vector 531 scenario.client[2].ppp[3].ppp passedUpPk:vector(packetBytes) ETV
attr interpolationmode none
attr source packetSentToUpper
attr title "packets passed to higher layer, vector(packetBytes)"
vector 532 scenario.client[2].tcp.conn-54 rcvAdv:vector ETV
attr interpolationmode sample-hold
vector 533 scenario.client[2].tcp.conn-54 sndWnd:vector ETV
attr interpolationmode sample-hold
vector 534 scenario.client[2].tcp.conn-54 tcpRcvQueueBytes:vector ETV
attr interpolationmode sample-hold
vector 535 scenario.client[2].tcp.conn-54 rcvWnd:vector ETV
attr interpolationmode sample-hold
vector 536 scenario.client[2].tcp.conn-54 sndAck:vector ETV
attr interpolationmode sample-hold
vector 537 scenario.client[2].ppp[3].ppp rcvdPkFromHl:vector(packetBytes) ETV
attr interpolationmode none
attr source packetReceivedFromUpper
attr title "packets received from higher layer, vector(packetBytes)"
vector 538 scenario.client[2].ppp[3].ppp.queue packetPushed:vector(packetBytes) ETV
attr interpolationmode none
attr title "packet pushed, vector(packetBytes)"
vector 539 scenario.client[2].ppp[3].ppp.queue queueLength:vector ETV
attr interpolationmode sample-hold
attr source "count(packetPushed) - count(packetPopped) - count(packetRemoved) - count(packetDropped)"
attr title "queue length, vector"
vector 540 scenario.client[2].ppp[3].ppp.queue packetPopped:vector(packetBytes) ETV
attr interpolationmode none
attr title "packet popped, vector(packetBytes)"
vector 541 scenario.client[2].ppp[3].ppp.queue queueingTime:vector ETV
attr interpolationmode none
attr source queueingTime(packetPopped)
attr title "queueing times, vector"
attr unit s
vector 542 scenario.client[2].ppp[3].ppp txPk:vector(packetBytes) ETV
attr interpolationmode none
attr source packetSentToLower
attr title "packets transmitted, vector(packetBytes)"
vector 543 scenario.client[4].ppp[2].ppp rxPkOk:vector(packetBytes) ETV
attr interpolationmode none
attr source rxPkOk
attr title "packets received OK, vector(packetBytes)"
vector 544 scenario.client[4].ppp[2].ppp passedUpPk:vector(packetBytes) ETV
attr interpolationmode none
attr source packetSentToUpper
attr title "packets passed to higher layer, vector(packetBytes)"
vector 545 scenario.client[4].tcp.conn-53 rcvSeq:vector ETV
attr interpolationmode sample-hold
vector 546 scenario.client[4].tcp.conn-53 rcvAck:vector ETV
attr interpolationmode sample-hold
vector 547 scenario.client[4].tcp.conn-53 sndWnd:vector ETV
attr interpolationmode sample-hold
vector 548 scenario.client[4].tcp.conn-53 unacked:vector ETV
attr interpolationmode sample-hold
vector 549 scenario.client[2].tcp.conn-54 rcvSeq:vector ETV
attr interpolationmode sample-hold
vector 550 scenario.client[2].tcp.conn-54 rcvAck:vector ETV
attr interpolationmode sample-hold
vector 551 scenario.client[2].tcp.conn-54 unacked:vector ETV
attr interpolationmode sample-hold
vector 552 scenario.client[2].tcp.conn-54 cwnd:vector ETV
attr interpolationmode sample-hold
vector 553 scenario.client[2].tcp.conn-54 ssthresh:vector ETV
attr interpolationmode sample-hold
vector 554 scenario.client[2].tcp.conn-54 dupAcks:vector ETV
attr interpolationmode sample-hold
vector 555 scenario.client[4].tcp.conn-53 rtt:vector ETV
attr interpolationmode sample-hold
vector 556 scenario.client[4].tcp.conn-53 srtt:vector ETV
attr interpolationmode sample-hold
vector 557 scenario.client[4].tcp.conn-53 rttvar:vector ETV
attr interpolationmode sample-hold
vector 558 scenario.client[4].tcp.conn-53 rto:vector ETV
attr interpolationmode sample-hold
vector 559 scenario.client[4].tcp.conn-53 cwnd:vector ETV
attr interpolationmode sample-hold
vector 560 scenario.client[4].tcp.conn-53 ssthresh:vector ETV
attr interpolationmode sample-hold
vector 561 scenario.client[4].tcp.conn-53 dupAcks:vector ETV
attr interpolationmode sample-hold
vector 562 scenario.client[0].tcp.conn-55 tcpRcvQueueBytes:vector ETV
attr interpolationmode sample-hold
vector 563 scenario.client[0].tcp.conn-55 rcvAdv:vector ETV
attr interpolationmode sample-hold
vector 564 scenario.client[0].tcp.conn-55 rcvWnd:vector ETV
attr interpolationmode sample-hold
vector 565 scenario.client[0].tcp.conn-55 sndAck:vector ETV
attr interpolationmode sample-hold
vector 566 scenario.client[4].tcp.conn-4 rcvSeq:vector ETV
attr interpolationmode sample-hold
vector 567 scenario.client[4].tcp.conn-4 rcvAck:vector ETV
attr interpolationmode sample-hold
vector 568 scenario.client[4].tcp.conn-56 rcvAdv:vector ETV
attr interpolationmode sample-hold
vector 569 scenario.client[4].tcp.conn-56 sndWnd:vector ETV
attr interpolationmode sample-hold
vector 570 scenario.client[4].tcp.conn-56 tcpRcvQueueBytes:vector ETV
attr interpolationmode sample-hold
vector 571 scenario.client[4].tcp.conn-56 rcvWnd:vector ETV
attr interpolationmode sample-hold
vector 572 scenario.client[4].tcp.conn-56 sndAck:vector ETV
attr interpolationmode sample-hold
vector 573 scenario.client[0].tcp.conn-55 rcvSeq:vector ETV
attr interpolationmode sample-hold
vector 574 scenario.client[0].tcp.conn-55 rcvAck:vector ETV
attr interpolationmode sample-hold
vector 575 scenario.client[0].tcp.conn-55 sndWnd:vector ETV
attr interpolationmode sample-hold
vector 576 scenario.client[0].tcp.conn-55 unacked:vector ETV
attr interpolationmode sample-hold
vector 577 scenario.client[4].tcp.conn-56 rcvSeq:vector ETV
attr interpolationmode sample-hold
vector 578 scenario.client[4].tcp.conn-56 rcvAck:vector ETV
attr interpolationmode sample-hold
vector 579 scenario.client[4].tcp.conn-56 unacked:vector ETV
attr interpolationmode sample-hold
vector 580 scenario.client[4].tcp.conn-56 cwnd:vector ETV
attr interpolationmode sample-hold
vector 581 scenario.client[4].tcp.conn-56 ssthresh:vector ETV
attr interpolationmode sample-hold
vector 582 scenario.client[4].tcp.conn-56 dupAcks:vector ETV
attr interpolationmode sample-hold
vector 583 scenario.client[0].tcp.conn-55 rtt:vector ETV
attr interpolationmode sample-hold
vector 584 scenario.client[0].tcp.conn-55 srtt:vector ETV
attr interpolationmode sample-hold
vector 585 scenario.client[0].tcp.conn-55 rttvar:vector ETV
attr interpolationmode sample-hold
vector 586 scenario.client[0].tcp.conn-55 rto:vector ETV
attr interpolationmode sample-hold
vector 587 scenario.client[0].tcp.conn-55 cwnd:vector ETV
attr interpolationmode sample-hold
vector 588 scenario.client[0].tcp.conn-55 ssthresh:vector ETV
attr interpolationmode sample-hold
vector 589 scenario.client[0].tcp.conn-55 dupAcks:vector ETV
attr interpolationmode sample-hold
vector 590 scenario.client[4].tcp.conn-57 tcpRcvQueueBytes:vector ETV
attr interpolationmode sample-hold
vector 591 scenario.client[4].tcp.conn-57 rcvAdv:vector ETV
attr interpolationmode sample-hold
vector 592 scenario.client[4].tcp.conn-57 rcvWnd:vector ETV
attr interpolationmode sample-hold
vector 593 scenario.client[4].tcp.conn-57 sndAck:vector ETV
attr interpolationmode sample-hold
vector 594 scenario.client[4].ppp[3].ppp rcvdPkFromHl:vector(packetBytes) ETV
attr interpolationmode none
attr source packetReceivedFromUpper
attr title "packets received from higher layer, vector(packetBytes)"
vector 595 scenario.client[4].ppp[3].ppp.queue packetPushed:vector(packetBytes) ETV
attr interpolationmode none
attr title "packet pushed, vector(packetBytes)"
vector 596 scenario.client[4].ppp[3].ppp.queue queueLength:vector ETV
attr interpolationmode sample-hold
attr source "count(packetPushed) - count(packetPopped) - count(packetRemoved) - count(packetDropped)"
attr title "queue length, vector"
vector 597 scenario.client[4].ppp[3].ppp.queue packetPopped:vector(packetBytes) ETV
attr interpolationmode none
attr title "packet popped, vector(packetBytes)"
vector 598 scenario.client[4].ppp[3].ppp.queue queueingTime:vector ETV
attr interpolationmode none
attr source queueingTime(packetPopped)
attr title "queueing times, vector"
attr unit s
vector 599 scenario.client[4].ppp[3].ppp txPk:vector(packetBytes) ETV
attr interpolationmode none
attr source packetSentToLower
attr title "packets transmitted, vector(packetBytes)"
vector 600 scenario.client[3].ppp[3].ppp rxPkOk:vector(packetBytes) ETV
attr interpolationmode none
attr source rxPkOk
attr title "packets received OK, vector(packetBytes)"
vector 601 scenario.client[3].ppp[3].ppp passedUpPk:vector(packetBytes) ETV
attr interpolationmode none
attr source packetSentToUpper
attr title "packets passed to higher layer, vector(packetBytes)"
vector 602 scenario.client[3].tcp.conn-58 rcvAdv:vector ETV
attr interpolationmode sample-hold
vector 603 scenario.client[3].tcp.conn-58 sndWnd:vector ETV
attr interpolationmode sample-hold
vector 604 scenario.client[3].tcp.conn-58 tcpRcvQueueBytes:vector ETV
attr interpolationmode sample-hold
vector 605 scenario.client[3].tcp.conn-58 rcvWnd:vector ETV
attr interpolationmode sample-hold
vector 606 scenario.client[3].tcp.conn-58 sndAck:vector ETV
attr interpolationmode sample-hold
vector 607 scenario.client[3].ppp[3].ppp rcvdPkFromHl:vector(packetBytes) ETV
attr interpolationmode none
attr source packetReceivedFromUpper
attr title "packets received from higher layer, vector(packetBytes)"
vector 608 scenario.client[3].ppp[3].ppp.queue packetPushed:vector(packetBytes) ETV
attr interpolationmode none
attr title "packet pushed, vector(packetBytes)"
vector 609 scenario.client[3].ppp[3].ppp.queue queueLength:vector ETV
attr interpolationmode sample-hold
attr source "count(packetPushed) - count(packetPopped) - count(packetRemoved) - count(packetDropped)"
attr title "queue length, vector"
vector 610 scenario.client[3].ppp[3].ppp.queue packetPopped:vector(packetBytes) ETV
attr interpolationmode none
attr title "packet popped, vector(packetBytes)"
vector 611 scenario.client[3].ppp[3].ppp.queue queueingTime:vector ETV
attr interpolationmode none
attr source queueingTime(packetPopped)
attr title "queueing times, vector"
attr unit s
vector 612 scenario.client[3].ppp[3].ppp txPk:vector(packetBytes) ETV
attr interpolationmode none
attr source packetSentToLower
attr title "packets transmitted, vector(packetBytes)"
vector 613 scenario.client[4].ppp[3].ppp rxPkOk:vector(packetBytes) ETV
attr interpolationmode none
attr source rxPkOk
attr title "packets received OK, vector(packetBytes)"
vector 614 scenario.client[4].ppp[3].ppp passedUpPk:vector(packetBytes) ETV
attr interpolationmode none
attr source packetSentToUpper
attr title "packets passed to higher layer, vector(packetBytes)"
vector 615 scenario.client[4].tcp.conn-57 rcvSeq:vector ETV
attr interpolationmode sample-hold
vector 616 scenario.client[4].tcp.conn-57 rcvAck:vector ETV
attr interpolationmode sample-hold
vector 617 scenario.client[4].tcp.conn-57 sndWnd:vector ETV
attr interpolationmode sample-hold
vector 618 scenario.client[4].tcp.conn-57 unacked:vector ETV
attr interpolationmode sample-hold
vector 619 scenario.client[3].tcp.conn-58 rcvSeq:vector ETV
attr interpolationmode sample-hold
vector 620 scenario.client[3].tcp.conn-58 rcvAck:vector ETV
attr interpolationmode sample-hold
vector 621 scenario.client[3].tcp.conn-58 unacked:vector ETV
attr interpolationmode sample-hold
vector 622 scenario.client[3].tcp.conn-58 cwnd:vector ETV
attr interpolationmode sample-hold
vector 623 scenario.client[3].tcp.conn-58 ssthresh:vector ETV
attr interpolationmode sample-hold
vector 624 scenario.client[3].tcp.conn-58 dupAcks:vector ETV
attr interpolationmode sample-hold
vector 625 scenario.client[4].tcp.conn-57 rtt:vector ETV
attr interpolationmode sample-hold
vector 626 scenario.client[4].tcp.conn-57 srtt:vector ETV
attr interpolationmode sample-hold
vector 627 scenario.client[4].tcp.conn-57 rttvar:vector ETV
attr interpolationmode sample-hold
vector 628 scenario.client[4].tcp.conn-57 rto:vector ETV
attr interpolationmode sample-hold
vector 629 scenario.client[4].tcp.conn-57 cwnd:vector ETV
attr interpolationmode sample-hold
vector 630 scenario.client[4].tcp.conn-57 ssthresh:vector ETV
attr interpolationmode sample-hold
vector 631 scenario.client[4].tcp.conn-57 dupAcks:vector ETV
attr interpolationmode sample-hold
vector 632 scenario.client[1].tcp.conn-59 tcpRcvQueueBytes:vector ETV
attr interpolationmode sample-hold
vector 633 scenario.client[1].tcp.conn-59 rcvAdv:vector ETV
attr interpolationmode sample-hold
vector 634 scenario.client[1].tcp.conn-59 rcvWnd:vector ETV
attr interpolationmode sample-hold
vector 635 scenario.client[1].tcp.conn-59 sndAck:vector ETV
attr interpolationmode sample-hold
vector 636 scenario.client[4].tcp.conn-60 rcvAdv:vector ETV
attr interpolationmode sample-hold
vector 637 scenario.client[4].tcp.conn-60 sndWnd:vector ETV
attr interpolationmode sample-hold
vector 638 scenario.client[4].tcp.conn-60 tcpRcvQueueBytes:vector ETV
attr interpolationmode sample-hold
vector 639 scenario.client[4].tcp.conn-60 rcvWnd:vector ETV
attr interpolationmode sample-hold
vector 640 scenario.client[4].tcp.conn-60 sndAck:vector ETV
attr interpolationmode sample-hold
vector 641 scenario.client[1].tcp.conn-59 rcvSeq:vector ETV
attr interpolationmode sample-hold
vector 642 scenario.client[1].tcp.conn-59 rcvAck:vector ETV
attr interpolationmode sample-hold
vector 643 scenario.client[1].tcp.conn-59 sndWnd:vector ETV
attr interpolationmode sample-hold
vector 644 scenario.client[1].tcp.conn-59 unacked:vector ETV
attr interpolationmode sample-hold
vector 645 scenario.client[4].tcp.conn-60 rcvSeq:vector ETV
attr interpolationmode sample-hold
vector 646 scenario.client[4].tcp.conn-60 rcvAck:vector ETV
attr interpolationmode sample-hold
vector 647 scenario.client[4].tcp.conn-60 unacked:vector ETV
attr interpolationmode sample-hold
vector 648 scenario.client[4].tcp.conn-60 cwnd:vector ETV
attr interpolationmode sample-hold
vector 649 scenario.client[4].tcp.conn-60 ssthresh:vector ETV
attr interpolationmode sample-hold
vector 650 scenario.client[4].tcp.conn-60 dupAcks:vector ETV
attr interpolationmode sample-hold
vector 651 scenario.client[1].tcp.conn-59 rtt:vector ETV
attr interpolationmode sample-hold
vector 652 scenario.client[1].tcp.conn-59 srtt:vector ETV
attr interpolationmode sample-hold
vector 653 scenario.client[1].tcp.conn-59 rttvar:vector ETV
attr interpolationmode sample-hold
[...]
474	293973 556 524 2527 2.694417691336 12.13896395935 20 47 51 958 45916
475	294529 556 526 2529 2.695325691336 12.13984795935 20 47 51 958 45916
476	295085 556 526 2529 2.695325691336 12.13984795935 20 40 44 818 33484
477	295641 319 528 2472 2.695325691336 11.917343729241 10 673604 673605 6736049 4537435613041
478	295960 319 528 2472 2.695325691336 11.917343729241 10 673378 673388 6733827 4534442606693
479	296279 299 528 2472 2.695325691336 11.917343729241 10 7503 7504 75039 563085153
480	296578 486 528 2472 2.695325691336 11.917343729241 18 0 2 10 12
481	297064 288 535 2465 2.696209691336 11.916467729241 9 673378 673387 6060439 4080991208149
482	297352 288 535 2465 2.696209691336 11.916467729241 9 673605 673605 6062445 4083693264225
483	297640 26 535 535 2.696209691336 2.696209691336 1 0 0 0 0
484	297666 29 535 535 2.696209691336 2.696209691336 1 1072 1072 1072 1149184
485	297695 35 535 535 2.696209691336 2.696209691336 1 4294967295 4294967295 4294967295 1.844674406512e+019
486	297730 243 535 2465 2.696209691336 11.916467729241 9 0 0 0 0
487	297973 267 543 2525 2.696209691336 12.13896395935 10 0 0 0 0
488	298240 346 543 2525 2.696209691336 12.13896395935 11 7504 681878 6826284 4649632378856
489	298586 297 543 2525 2.696209691336 12.13896395935 10 7504 7504 75040 563100160
490	298883 312 543 2525 2.696209691336 12.13896395935 10 0 674374 6069366 4093022626884
491	299195 300 551 2472 2.697085691336 11.917343729241 9 0.00176 0.002144 0.016976 3.2307328e-005
492	299495 346 551 2472 2.697085691336 11.917343729241 9 0.00022 0.001318849515 0.007744053404 7.7764072708077e-006
493	299841 348 551 2472 2.697085691336 11.917343729241 9 0.226221504024 0.65647 3.677000267949 1.6754516163097
494	300189 332 551 2472 2.697085691336 11.917343729241 9 1 2.6261 14.809540259589 27.007827579746
495	300521 270 551 2472 2.697085691336 11.917343729241 9 1072 3216 15544 31889856
496	300791 324 551 2472 2.697085691336 11.917343729241 9 4294967295 4294967295 38654705655 1.6602069658608e+020
497	301115 243 551 2472 2.697085691336 11.917343729241 9 0 0 0 0
498	301358 348 554 2531 2.697493691336 12.13984795935 11 681557 681567 7497174 5109783453432
499	301706 58 554 567 2.697493691336 2.699285691336 2 7504 7504 15008 112620032
500	301764 508 554 2531 2.697493691336 12.13984795935 19 0 1 1 1
501	302272 297 554 2531 2.697493691336 12.13984795935 10 7503 7504 75039 563085153
502	302569 317 554 2531 2.697493691336 12.13984795935 10 674053 674063 6740578 4543539177514
503	302886 317 560 2538 2.698401691336 12.14072395935 10 674373 674374 6743739 4547801570013
504	303203 317 560 2538 2.698401691336 12.14072395935 10 674053 674063 6740578 4543539177514
505	303520 297 560 2538 2.698401691336 12.14072395935 10 7503 7504 75039 563085153
506	303817 482 560 2538 2.698401691336 12.14072395935 18 0 2 10 12
507	304299 286 567 2531 2.699285691336 12.13984795935 9 674053 674062 6066515 4089178249545
508	304585 286 567 2531 2.699285691336 12.13984795935 9 674374 674374 6069366 4093022626884
509	304871 26 567 567 2.699285691336 2.699285691336 1 0 0 0 0
510	304897 29 567 567 2.699285691336 2.699285691336 1 1072 1072 1072 1149184
511	304926 35 567 567 2.699285691336 2.699285691336 1 4294967295 4294967295 4294967295 1.844674406512e+019
512	304961 241 567 2531 2.699285691336 12.13984795935 9 0 0 0 0
513	305202 297 577 2538 2.700161691336 12.14072395935 9 0.00176 0.002144 0.0166 3.0842432e-005
514	305499 343 577 2538 2.700161691336 12.14072395935 9 0.00022 0.00129169899 0.007558107076 7.4638515311581e-006
515	305842 346 577 2538 2.700161691336 12.14072395935 9 0.226206834285 0.65647 3.676885751922 1.6753456946623
516	306188 330 577 2538 2.700161691336 12.14072395935 9 1 2.6261 14.808982078634 27.005673799537
517	306518 268 577 2538 2.700161691336 12.14072395935 9 1072 3216 15544 31889856
518	306786 322 577 2538 2.700161691336 12.14072395935 9 4294967295 4294967295 38654705655 1.6602069658608e+020
519	307108 241 577 2538 2.700161691336 12.14072395935 9 0 0 0 0
520	307349 108 639 2754 2.931791131321 13.769131328716 4 0 0 0 0
521	307457 157 639 2754 2.931791131321 13.769131328716 5 7504 740679 2970220 2194477834180
522	307614 120 639 2754 2.931791131321 13.769131328716 4 7504 7504 30016 225240064
523	307734 123 639 2754 2.931791131321 13.769131328716 4 0 733175 2199525 1612636741875
524	307857 251 642 2756 2.931791131321 13.769131328716 9 40 44 371 15315
525	308108 251 642 2756 2.931791131321 13.769131328716 9 40 44 371 15315
526	308359 484 642 2756 2.931791131321 13.769131328716 18 0 1 9 9
527	308843 251 642 2756 2.931791131321 13.769131328716 9 40 44 371 15315
528	309094 242 642 2756 2.931791131321 13.769131328716 9 0 0 0 0
529	309336 251 642 2756 2.931791131321 13.769131328716 9 47 51 434 20950
530	309587 251 644 2765 2.932699131321 13.770015328716 9 47 51 434 20950
531	309838 251 644 2765 2.932699131321 13.770015328716 9 40 44 371 15315
532	310089 159 646 2767 2.932699131321 13.770015328716 5 740452 740455 3702265 2741353226053
533	310248 58 646 659 2.932699131321 2.934491131321 2 7504 7504 15008 112620032
534	310306 190 646 2767 2.932699131321 13.770015328716 7 0 1 1 1
535	310496 120 646 2767 2.932699131321 13.770015328716 4 7503 7504 30015 225225057
536	310616 128 646 2767 2.932699131321 13.770015328716 4 732948 732951 2931798 2148859878206
537	310744 251 648 2770 2.932699131321 13.770015328716 9 40 44 373 15479
538	310995 251 648 2770 2.932699131321 13.770015328716 9 40 44 373 15479
539	311246 484 648 2770 2.932699131321 13.770015328716 18 0 1 9 9
540	311730 251 648 2770 2.932699131321 13.770015328716 9 40 44 373 15479
541	311981 242 648 2770 2.932699131321 13.770015328716 9 0 0 0 0
542	312223 251 648 2770 2.932699131321 13.770015328716 9 47 51 436 21142
543	312474 251 650 2776 2.933607131321 13.770891328716 9 47 51 436 21142
544	312725 251 650 2776 2.933607131321 13.770891328716 9 40 44 373 15479
545	312976 128 652 2778 2.933607131321 13.770891328716 4 733174 733175 2932699 2150180856151
546	313104 128 652 2778 2.933607131321 13.770891328716 4 732948 732951 2931798 2148859878206
547	313232 120 652 2778 2.933607131321 13.770891328716 4 7503 7504 30015 225225057
548	313352 164 652 2778 2.933607131321 13.770891328716 6 0 1 3 3
549	313516 97 659 2767 2.934491131321 13.770015328716 3 732948 732950 2198847 1611642709805
550	313613 97 659 2767 2.934491131321 13.770015328716 3 733175 733175 2199525 1612636741875
551	313710 26 659 659 2.934491131321 2.934491131321 1 0 0 0 0
552	313736 29 659 659 2.934491131321 2.934491131321 1 1072 1072 1072 1149184
553	313765 35 659 659 2.934491131321 2.934491131321 1 4294967295 4294967295 4294967295 1.844674406512e+019
554	313800 82 659 2767 2.934491131321 13.770015328716 3 0 0 0 0
555	313882 100 669 2778 2.935367131321 13.770891328716 3 0.00176 0.00176 0.00528 9.2928e-006
556	313982 107 669 2778 2.935367131321 13.770891328716 3 0.00022 0.0005809375 0.0012134375 5.5604462890625e-007
557	314089 109 669 2778 2.935367131321 13.770891328716 3 0.50294671875 0.65647 1.73402046875 1.0140777323155
558	314198 106 669 2778 2.935367131321 13.770891328716 3 2.0123678125 2.6261 6.9372953125 16.230633297542
559	314304 91 669 2778 2.935367131321 13.770891328716 3 1072 1608 3752 4884032
560	314395 109 669 2778 2.935367131321 13.770891328716 3 4294967295 4294967295 12884901885 5.5340232195359e+019
561	314504 82 669 2778 2.935367131321 13.770891328716 3 0 0 0 0
562	314586 136 762 2921 3.184306345654 16.919958068423 5 0 0 0 0
563	314722 190 762 2921 3.184306345654 16.919958068423 6 7504 803808 4026544 3230592814336
564	314912 151 762 2921 3.184306345654 16.919958068423 5 7504 7504 37520 281550080
565	315063 156 762 2921 3.184306345654 16.919958068423 5 0 796304 3185216 2536400241664
566	315219 127 773 1126 3.185214345654 4.528958540361 4 796076 1132012 3860149 3788391452221
567	315346 105 773 1126 3.185214345654 4.528958540361 4 0 0 0 0
568	315451 192 773 2927 3.185214345654 16.920842068423 6 803581 803586 4821498 3874473827360
569	315643 58 773 786 3.185214345654 3.187006345654 2 7504 7504 15008 112620032
570	315701 246 773 2927 3.185214345654 16.920842068423 9 0 1 1 1
571	315947 151 773 2927 3.185214345654 16.920842068423 5 7503 7504 37519 281535073
572	316098 161 773 2927 3.185214345654 16.920842068423 5 796077 796082 3980398 3168713647698
573	316259 161 779 2934 3.186122345654 16.921718068423 5 796303 796304 3981519 3170498709473
574	316420 161 779 2934 3.186122345654 16.921718068423 5 796077 796082 3980398 3168713647698
575	316581 151 779 2934 3.186122345654 16.921718068423 5 7503 7504 37519 281535073
576	316732 220 779 2934 3.186122345654 16.921718068423 8 0 2 5 7
577	316952 130 786 2927 3.187006345654 16.920842068423 4 796077 796081 3184316 2534967096974
578	317082 130 786 2927 3.187006345654 16.920842068423 4 796304 796304 3185216 2536400241664
579	317212 26 786 786 3.187006345654 3.187006345654 1 0 0 0 0
580	317238 29 786 786 3.187006345654 3.187006345654 1 1072 1072 1072 1149184
581	317267 35 786 786 3.187006345654 3.187006345654 1 4294967295 4294967295 4294967295 1.844674406512e+019
582	317302 110 786 2927 3.187006345654 16.920842068423 4 0 0 0 0
583	317412 135 796 2934 3.187882345654 16.921718068423 4 0.00176 0.001768 0.007048 1.2418624e-005
584	317547 148 796 2934 3.187882345654 16.921718068423 4 0.00022 0.000729085938 0.001944398438 1.0894543401456e-006
585	317695 150 796 2934 3.187882345654 16.921718068423 4 0.440226308594 0.65647 2.174248527344 1.2078788387229
586	317845 147 796 2934 3.187882345654 16.921718068423 4 1.761634320314 2.6261 8.698938507814 19.334027360216
587	317992 122 796 2934 3.187882345654 16.921718068423 4 1072 1072 4288 4596736
588	318114 146 796 2934 3.187882345654 16.921718068423 4 4294967295 4294967295 17179869180 7.3786976260478e+019
589	318260 110 796 2934 3.187882345654 16.921718068423 4 0 0 0 0
590	318370 108 798 2795 3.271623889889 14.115067789179 4 0 0 0 0
591	318478 157 798 2795 3.271623889889 14.115067789179 5 7504 825637 3310052 2726762133092
592	318635 120 798 2795 3.271623889889 14.115067789179 4 7504 7504 30016 225240064
593	318755 123 798 2795 3.271623889889 14.115067789179 4 0 818133 2454399 2008024817067
594	318878 226 801 2797 3.271623889889 14.115067789179 8 40 44 331 13715
595	319104 226 801 2797 3.271623889889 14.115067789179 8 40 44 331 13715
596	319330 436 801 2797 3.271623889889 14.115067789179 16 0 1 8 8
597	319766 226 801 2797 3.271623889889 14.115067789179 8 40 44 331 13715
598	319992 218 801 2797 3.271623889889 14.115067789179 8 0 0 0 0
599	320210 226 801 2797 3.271623889889 14.115067789179 8 47 51 387 18741
600	320436 226 803 2799 3.272531889889 14.115951789179 8 47 51 387 18741
601	320662 226 803 2799 3.272531889889 14.115951789179 8 40 44 331 13715
602	320888 159 805 2801 3.272531889889 14.115951789179 5 825410 825413 4127055 3406516594613
603	321047 58 805 818 3.272531889889 3.274323889889 2 7504 7504 15008 112620032
604	321105 190 805 2801 3.272531889889 14.115951789179 7 0 1 1 1
605	321295 120 805 2801 3.272531889889 14.115951789179 4 7503 7504 30015 225225057
606	321415 128 805 2801 3.272531889889 14.115951789179 4 817906 817909 3271630 2675890714230
607	321543 226 807 2804 3.272531889889 14.115951789179 8 40 44 331 13715
608	321769 226 807 2804 3.272531889889 14.115951789179 8 40 44 331 13715
609	321995 436 807 2804 3.272531889889 14.115951789179 16 0 1 8 8
610	322431 226 807 2804 3.272531889889 14.115951789179 8 40 44 331 13715
611	322657 218 807 2804 3.272531889889 14.115951789179 8 0 0 0 0
612	322875 226 807 2804 3.272531889889 14.115951789179 8 47 51 387 18741
613	323101 226 809 2806 3.273439889889 14.116827789179 8 47 51 387 18741
614	323327 226 809 2806 3.273439889889 14.116827789179 8 40 44 331 13715
615	323553 128 811 2808 3.273439889889 14.116827789179 4 818132 818133 3272531 2677364786491
616	323681 128 811 2808 3.273439889889 14.116827789179 4 817906 817909 3271630 2675890714230
617	323809 120 811 2808 3.273439889889 14.116827789179 4 7503 7504 30015 225225057
618	323929 164 811 2808 3.273439889889 14.116827789179 6 0 1 3 3
619	324093 97 818 2801 3.274323889889 14.115951789179 3 817906 817908 2453721 2006915581949
620	324190 97 818 2801 3.274323889889 14.115951789179 3 818133 818133 2454399 2008024817067
621	324287 26 818 818 3.274323889889 3.274323889889 1 0 0 0 0
622	324313 29 818 818 3.274323889889 3.274323889889 1 1072 1072 1072 1149184
623	324342 35 818 818 3.274323889889 3.274323889889 1 4294967295 4294967295 4294967295 1.844674406512e+019
624	324377 82 818 2801 3.274323889889 14.115951789179 3 0 0 0 0
625	324459 100 828 2808 3.275199889889 14.116827789179 3 0.00176 0.00176 0.00528 9.2928e-006
626	324559 107 828 2808 3.275199889889 14.116827789179 3 0.00022 0.0005809375 0.0012134375 5.5604462890625e-007
627	324666 109 828 2808 3.275199889889 14.116827789179 3 0.50294671875 0.65647 1.73402046875 1.0140777323155
628	324775 106 828 2808 3.275199889889 14.116827789179 3 2.0123678125 2.6261 6.9372953125 16.230633297542
629	324881 91 828 2808 3.275199889889 14.116827789179 3 1072 1608 3752 4884032
630	324972 109 828 2808 3.275199889889 14.116827789179 3 4294967295 4294967295 12884901885 5.5340232195359e+019
631	325081 82 828 2808 3.275199889889 14.116827789179 3 0 0 0 0
632	325163 136 860 2630 3.631343487533 12.583871946045 5 0 0 0 0
633	325299 190 860 2630 3.631343487533 12.583871946045 6 7504 915567 4585339 4191370967461
634	325489 151 860 2630 3.631343487533 12.583871946045 5 7504 7504 37520 281550080
635	325640 156 860 2630 3.631343487533 12.583871946045 5 0 908063 3632252 3298313647876
636	325796 192 867 2636 3.632251487533 12.584755946045 6 915340 915345 5492052 5027105861810
637	325988 58 867 880 3.632251487533 3.634043487533 2 7504 7504 15008 112620032
638	326046 246 867 2636 3.632251487533 12.584755946045 9 0 1 1 1
639	326292 151 867 2636 3.632251487533 12.584755946045 5 7503 7504 37519 281535073
640	326443 161 867 2636 3.632251487533 12.584755946045 5 907836 907841 4539193 4120854618267
641	326604 161 873 2643 3.633159487533 12.585631946045 5 908062 908063 4540314 4122890243720
642	326765 161 873 2643 3.633159487533 12.585631946045 5 907836 907841 4539193 4120854618267
643	326926 151 873 2643 3.633159487533 12.585631946045 5 7503 7504 37519 281535073
644	327077 220 873 2643 3.633159487533 12.585631946045 8 0 2 5 7
645	327297 130 880 2636 3.634043487533 12.584755946045 4 907836 907840 3631352 3296679336986
646	327427 130 880 2636 3.634043487533 12.584755946045 4 908063 908063 3632252 3298313647876
647	327557 26 880 880 3.634043487533 3.634043487533 1 0 0 0 0
648	327583 29 880 880 3.634043487533 3.634043487533 1 1072 1072 1072 1149184
649	327612 35 880 880 3.634043487533 3.634043487533 1 4294967295 4294967295 4294967295 1.844674406512e+019
650	327647 110 880 2636 3.634043487533 12.584755946045 4 0 0 0 0
651	327757 135 890 2643 3.634919487533 12.585631946045 4 0.00176 0.001768 0.007048 1.2418624e-005
652	327892 148 890 2643 3.634919487533 12.585631946045 4 0.00022 0.000729085938 0.001944398438 1.0894543401456e-006
653	328040 150 890 2643 3.634919487533 12.585631946045 4 0.440226308594 0.65647 2.174248527344 1.2078788387229
654	328190 147 890 2643 3.634919487533 12.585631946045 4 1.761634320314 2.6261 8.698938507814 19.334027360216
655	328337 122 890 2643 3.634919487533 12.585631946045 4 1072 2144 5896 9480768
656	328459 146 890 2643 3.634919487533 12.585631946045 4 4294967295 4294967295 17179869180 7.3786976260478e+019
657	328605 110 890 2643 3.634919487533 12.585631946045 4 0 0 0 0
658	328715 134 967 2660 4.096906401441 12.90740171685 5 0 0 0 0
659	328849 193 967 2660 4.096906401441 12.90740171685 6 7504 1031958 5167294 5324742878836
660	329042 149 967 2660 4.096906401441 12.90740171685 5 7504 7504 37520 281550080
661	329191 158 967 2660 4.096906401441 12.90740171685 5 0 1024454 4097816 4198023992464
662	329349 196 974 2666 4.097814401441 12.90828571685 6 1031731 1031736 6190398 6386837899760
663	329545 58 974 987 4.097814401441 4.099606401441 2 7504 7504 15008 112620032
664	329603 242 974 2666 4.097814401441 12.90828571685 9 0 1 1 1
665	329845 149 974 2666 4.097814401441 12.90828571685 5 7503 7504 37519 281535073
666	329994 164 974 2666 4.097814401441 12.90828571685 5 1024227 1024232 5121148 5245231367598
667	330158 164 980 2673 4.098722401441 12.90916171685 5 1024453 1024454 5122269 5247527941673
668	330322 164 980 2673 4.098722401441 12.90916171685 5 1024227 1024232 5121148 5245231367598
669	330486 149 980 2673 4.098722401441 12.90916171685 5 7503 7504 37519 281535073
670	330635 216 980 2673 4.098722401441 12.90916171685 8 0 2 5 7
671	330851 132 987 2666 4.099606401441 12.90828571685 4 1024227 1024231 4096916 4196180177774
672	330983 132 987 2666 4.099606401441 12.90828571685 4 1024454 1024454 4097816 4198023992464
673	331115 26 987 987 4.099606401441 4.099606401441 1 0 0 0 0
674	331141 29 987 987 4.099606401441 4.099606401441 1 1072 1072 1072 1149184
675	331170 35 987 987 4.099606401441 4.099606401441 1 4294967295 4294967295 4294967295 1.844674406512e+019
676	331205 108 987 2666 4.099606401441 12.90828571685 4 0 0 0 0
677	331313 133 997 2673 4.100482401441 12.90916171685 4 0.00176 0.001768 0.007048 1.2418624e-005
678	331446 146 997 2673 4.100482401441 12.90916171685 4 0.00022 0.000729085938 0.001944398438 1.0894543401456e-006
679	331592 148 997 2673 4.100482401441 12.90916171685 4 0.440226308594 0.65647 2.174248527344 1.2078788387229
680	331740 145 997 2673 4.100482401441 12.90916171685 4 1.761634320314 2.6261 8.698938507814 19.334027360216
681	331885 120 997 2673 4.100482401441 12.90916171685 4 1072 2144 5896 9480768
682	332005 144 997 2673 4.100482401441 12.90916171685 4 4294967295 4294967295 17179869180 7.3786976260478e+019
683	332149 108 997 2673 4.100482401441 12.90916171685 4 0 0 0 0
684	332257 110 1119 2750 4.528050540361 13.768826320872 4 0 0 0 0
685	332367 164 1119 2750 4.528050540361 13.768826320872 5 7504 1139744 4566480 5196121852160
686	332531 122 1119 2750 4.528050540361 13.768826320872 4 7504 7504 30016 225240064
687	332653 128 1119 2750 4.528050540361 13.768826320872 4 0 1132240 3396720 3845902252800
688	332781 167 1126 2761 4.528958540361 13.769710320872 5 1139517 1139520 5697590 6492506361628
689	332948 60 1126 1139 4.528958540361 4.530750540361 2 7504 7504 15008 112620032
690	333008 193 1126 2761 4.528958540361 13.769710320872 7 0 1 1 1
691	333201 122 1126 2761 4.528958540361 13.769710320872 4 7503 7504 30015 225225057
692	333323 134 1126 2761 4.528958540361 13.769710320872 4 1132013 1132016 4528058 5125827312846
693	333457 134 1132 2775 4.529866540361 13.770586320872 4 1132239 1132240 4528959 5127867405921
694	333591 134 1132 2775 4.529866540361 13.770586320872 4 1132013 1132016 4528058 5125827312846
695	333725 122 1132 2775 4.529866540361 13.770586320872 4 7503 7504 30015 225225057
696	333847 166 1132 2775 4.529866540361 13.770586320872 6 0 1 3 3
697	334013 101 1139 2761 4.530750540361 13.769710320872 3 1132013 1132015 3396042 3844367088590
698	334114 101 1139 2761 4.530750540361 13.769710320872 3 1132240 1132240 3396720 3845902252800
699	334215 27 1139 1139 4.530750540361 4.530750540361 1 0 0 0 0
700	334242 30 1139 1139 4.530750540361 4.530750540361 1 1072 1072 1072 1149184
701	334272 36 1139 1139 4.530750540361 4.530750540361 1 4294967295 4294967295 4294967295 1.844674406512e+019
702	334308 83 1139 2761 4.530750540361 13.769710320872 3 0 0 0 0
703	334391 101 1149 2775 4.531626540361 13.770586320872 3 0.00176 0.00176 0.00528 9.2928e-006
704	334492 108 1149 2775 4.531626540361 13.770586320872 3 0.00022 0.0005809375 0.0012134375 5.5604462890625e-007
705	334600 110 1149 2775 4.531626540361 13.770586320872 3 0.50294671875 0.65647 1.73402046875 1.0140777323155
706	334710 107 1149 2775 4.531626540361 13.770586320872 3 2.0123678125 2.6261 6.9372953125 16.230633297542
707	334817 92 1149 2775 4.531626540361 13.770586320872 3 1072 1608 3752 4884032
708	334909 110 1149 2775 4.531626540361 13.770586320872 3 4294967295 4294967295 12884901885 5.5340232195359e+019
709	335019 83 1149 2775 4.531626540361 13.770586320872 3 0 0 0 0

