file 255617 1641930790                                          
version 2
run BROADCAST-0-20220111-20:53:07-14368
attr configname BROADCAST
attr datetime 20220111-20:53:07
attr experiment BROADCAST
attr inifile omnetpp.ini
attr iterationvars ""
attr iterationvarsf ""
attr measurement ""
attr network scenario
attr processid 14368
attr repetition 0
attr replication #0
attr resultdir results
attr runnumber 0
attr seedset 0
param **.client0.app[0].broadcast 0.7
param **.client2.app[0].leave 0.40
param **.client*.app[*].timer 0.2
param **.ppp[*].ppp.queue.typename "\"DropTailQueue\""
param **.tcp.typename "\"Tcp\""
param **.tcp.nagleEnabled false
param **.cli*.app[*].nPar 5
param **.cli*.app[*].fPar 0
param **.numApps 1
param **.client0.app[*].typename "\"Node\""
param **.client0.app[0].localPort 1000
param **.client0.app[0].localPortL 1234
param **.client0.app[0].connectAddress "\"\""
param **.client0.app[0].connectPort 1234
param **.client1.app[*].typename "\"Node\""
param **.client1.app[0].localPort 1001
param **.client1.app[0].localPortL 1234
param **.client1.app[0].connectAddress "\"\""
param **.client1.app[0].connectPort 1234
param **.client2.app[*].typename "\"Node\""
param **.client2.app[0].localPort 1002
param **.client2.app[0].localPortL 1234
param **.client2.app[0].connectAddress "\"\""
param **.client2.app[0].connectPort 1234
param **.client3.app[*].typename "\"Node\""
param **.client3.app[0].localPort 1003
param **.client3.app[0].localPortL 1234
param **.client3.app[0].connectAddress "\"\""
param **.client3.app[0].connectPort 1234
param **.client4.app[*].typename "\"Node\""
param **.client4.app[0].localPort 1004
param **.client4.app[0].localPortL 1234
param **.client4.app[0].connectAddress "\"\""
param **.client4.app[0].connectPort 1234
param *.configurator.dumpAddresses true
param *.configurator.dumpTopology true
param *.configurator.dumpLinks true
param *.configurator.dumpRoutes true

vector 0 scenario.client0.ppp[0].ppp transmissionState:vector ETV
attr interpolationmode sample-hold
attr source transmissionStateChanged
attr title "tx state, vector"
vector 1 scenario.client0.ppp[1].ppp transmissionState:vector ETV
attr interpolationmode sample-hold
attr source transmissionStateChanged
attr title "tx state, vector"
vector 2 scenario.client0.ppp[2].ppp transmissionState:vector ETV
attr interpolationmode sample-hold
attr source transmissionStateChanged
attr title "tx state, vector"
vector 3 scenario.client0.ppp[3].ppp transmissionState:vector ETV
attr interpolationmode sample-hold
attr source transmissionStateChanged
attr title "tx state, vector"
vector 4 scenario.client1.ppp[0].ppp transmissionState:vector ETV
attr interpolationmode sample-hold
attr source transmissionStateChanged
attr title "tx state, vector"
vector 5 scenario.client1.ppp[1].ppp transmissionState:vector ETV
attr interpolationmode sample-hold
attr source transmissionStateChanged
attr title "tx state, vector"
vector 6 scenario.client1.ppp[2].ppp transmissionState:vector ETV
attr interpolationmode sample-hold
attr source transmissionStateChanged
attr title "tx state, vector"
vector 7 scenario.client1.ppp[3].ppp transmissionState:vector ETV
attr interpolationmode sample-hold
attr source transmissionStateChanged
attr title "tx state, vector"
vector 8 scenario.client2.ppp[0].ppp transmissionState:vector ETV
attr interpolationmode sample-hold
attr source transmissionStateChanged
attr title "tx state, vector"
vector 9 scenario.client2.ppp[1].ppp transmissionState:vector ETV
attr interpolationmode sample-hold
attr source transmissionStateChanged
attr title "tx state, vector"
vector 10 scenario.client2.ppp[2].ppp transmissionState:vector ETV
attr interpolationmode sample-hold
attr source transmissionStateChanged
attr title "tx state, vector"
vector 11 scenario.client2.ppp[3].ppp transmissionState:vector ETV
attr interpolationmode sample-hold
attr source transmissionStateChanged
attr title "tx state, vector"
vector 12 scenario.client3.ppp[0].ppp transmissionState:vector ETV
attr interpolationmode sample-hold
attr source transmissionStateChanged
attr title "tx state, vector"
vector 13 scenario.client3.ppp[1].ppp transmissionState:vector ETV
attr interpolationmode sample-hold
attr source transmissionStateChanged
attr title "tx state, vector"
vector 14 scenario.client3.ppp[2].ppp transmissionState:vector ETV
attr interpolationmode sample-hold
attr source transmissionStateChanged
attr title "tx state, vector"
vector 15 scenario.client3.ppp[3].ppp transmissionState:vector ETV
attr interpolationmode sample-hold
attr source transmissionStateChanged
attr title "tx state, vector"
vector 16 scenario.client4.ppp[0].ppp transmissionState:vector ETV
attr interpolationmode sample-hold
attr source transmissionStateChanged
attr title "tx state, vector"
vector 17 scenario.client4.ppp[1].ppp transmissionState:vector ETV
attr interpolationmode sample-hold
attr source transmissionStateChanged
attr title "tx state, vector"
vector 18 scenario.client4.ppp[2].ppp transmissionState:vector ETV
attr interpolationmode sample-hold
attr source transmissionStateChanged
attr title "tx state, vector"
vector 19 scenario.client4.ppp[3].ppp transmissionState:vector ETV
attr interpolationmode sample-hold
attr source transmissionStateChanged
attr title "tx state, vector"
vector 20 scenario.client2.tcp.conn-25 tcpRcvQueueBytes:vector ETV
attr interpolationmode sample-hold
vector 21 scenario.client2.tcp.conn-25 rcvAdv:vector ETV
attr interpolationmode sample-hold
vector 22 scenario.client2.tcp.conn-25 rcvWnd:vector ETV
attr interpolationmode sample-hold
vector 23 scenario.client2.tcp.conn-25 sndAck:vector ETV
attr interpolationmode sample-hold
vector 24 scenario.client2.ppp[0].ppp rcvdPkFromHl:vector(packetBytes) ETV
attr interpolationmode none
attr source packetReceivedFromUpper
attr title "packets received from higher layer, vector(packetBytes)"
vector 25 scenario.client2.ppp[0].ppp.queue packetPushed:vector(packetBytes) ETV
attr interpolationmode none
attr title "packet pushed, vector(packetBytes)"
vector 26 scenario.client2.ppp[0].ppp.queue queueLength:vector ETV
attr interpolationmode sample-hold
attr source "count(packetPushed) - count(packetPopped) - count(packetRemoved) - count(packetDropped)"
attr title "queue length, vector"
vector 27 scenario.client2.ppp[0].ppp.queue packetPopped:vector(packetBytes) ETV
attr interpolationmode none
attr title "packet popped, vector(packetBytes)"
vector 28 scenario.client2.ppp[0].ppp.queue queueingTime:vector ETV
attr interpolationmode none
attr source queueingTime(packetPopped)
attr title "queueing times, vector"
attr unit s
vector 29 scenario.client2.ppp[0].ppp txPk:vector(packetBytes) ETV
attr interpolationmode none
attr source packetSentToLower
attr title "packets transmitted, vector(packetBytes)"
vector 30 scenario.client0.ppp[1].ppp rxPkOk:vector(packetBytes) ETV
attr interpolationmode none
attr source rxPkOk
attr title "packets received OK, vector(packetBytes)"
vector 31 scenario.client0.ppp[1].ppp passedUpPk:vector(packetBytes) ETV
attr interpolationmode none
attr source packetSentToUpper
attr title "packets passed to higher layer, vector(packetBytes)"
vector 32 scenario.client0.tcp.conn-0 rcvSeq:vector ETV
attr interpolationmode sample-hold
vector 33 scenario.client0.tcp.conn-0 rcvAck:vector ETV
attr interpolationmode sample-hold
vector 34 scenario.client0.tcp.conn-26 rcvAdv:vector ETV
attr interpolationmode sample-hold
vector 35 scenario.client0.tcp.conn-26 sndWnd:vector ETV
attr interpolationmode sample-hold
vector 36 scenario.client0.tcp.conn-26 tcpRcvQueueBytes:vector ETV
attr interpolationmode sample-hold
vector 37 scenario.client0.tcp.conn-26 rcvWnd:vector ETV
attr interpolationmode sample-hold
vector 38 scenario.client0.tcp.conn-26 sndAck:vector ETV
attr interpolationmode sample-hold
vector 39 scenario.client0.ppp[1].ppp rcvdPkFromHl:vector(packetBytes) ETV
attr interpolationmode none
attr source packetReceivedFromUpper
attr title "packets received from higher layer, vector(packetBytes)"
vector 40 scenario.client0.ppp[1].ppp.queue packetPushed:vector(packetBytes) ETV
attr interpolationmode none
attr title "packet pushed, vector(packetBytes)"
vector 41 scenario.client0.ppp[1].ppp.queue queueLength:vector ETV
attr interpolationmode sample-hold
attr source "count(packetPushed) - count(packetPopped) - count(packetRemoved) - count(packetDropped)"
attr title "queue length, vector"
vector 42 scenario.client0.ppp[1].ppp.queue packetPopped:vector(packetBytes) ETV
attr interpolationmode none
attr title "packet popped, vector(packetBytes)"
vector 43 scenario.client0.ppp[1].ppp.queue queueingTime:vector ETV
attr interpolationmode none
attr source queueingTime(packetPopped)
attr title "queueing times, vector"
attr unit s
vector 44 scenario.client0.ppp[1].ppp txPk:vector(packetBytes) ETV
attr interpolationmode none
attr source packetSentToLower
attr title "packets transmitted, vector(packetBytes)"
vector 45 scenario.client2.ppp[0].ppp rxPkOk:vector(packetBytes) ETV
attr interpolationmode none
attr source rxPkOk
attr title "packets received OK, vector(packetBytes)"
vector 46 scenario.client2.ppp[0].ppp passedUpPk:vector(packetBytes) ETV
attr interpolationmode none
attr source packetSentToUpper
attr title "packets passed to higher layer, vector(packetBytes)"
vector 47 scenario.client2.tcp.conn-25 rcvSeq:vector ETV
attr interpolationmode sample-hold
vector 48 scenario.client2.tcp.conn-25 rcvAck:vector ETV
attr interpolationmode sample-hold
vector 49 scenario.client2.tcp.conn-25 sndWnd:vector ETV
attr interpolationmode sample-hold
vector 50 scenario.client2.tcp.conn-25 unacked:vector ETV
attr interpolationmode sample-hold
vector 51 scenario.client0.tcp.conn-26 rcvSeq:vector ETV
attr interpolationmode sample-hold
vector 52 scenario.client0.tcp.conn-26 rcvAck:vector ETV
attr interpolationmode sample-hold
vector 53 scenario.client0.tcp.conn-26 unacked:vector ETV
attr interpolationmode sample-hold
vector 54 scenario.client0.tcp.conn-26 cwnd:vector ETV
attr interpolationmode sample-hold
vector 55 scenario.client0.tcp.conn-26 ssthresh:vector ETV
attr interpolationmode sample-hold
vector 56 scenario.client0.tcp.conn-26 dupAcks:vector ETV
attr interpolationmode sample-hold
vector 57 scenario.client2.tcp.conn-25 rtt:vector ETV
attr interpolationmode sample-hold
vector 58 scenario.client2.tcp.conn-25 srtt:vector ETV
attr interpolationmode sample-hold
vector 59 scenario.client2.tcp.conn-25 rttvar:vector ETV
attr interpolationmode sample-hold
vector 60 scenario.client2.tcp.conn-25 rto:vector ETV
attr interpolationmode sample-hold
vector 61 scenario.client2.tcp.conn-25 cwnd:vector ETV
attr interpolationmode sample-hold
vector 62 scenario.client2.tcp.conn-25 ssthresh:vector ETV
attr interpolationmode sample-hold
vector 63 scenario.client2.tcp.conn-25 dupAcks:vector ETV
attr interpolationmode sample-hold
vector 64 scenario.client0.tcp.conn-27 tcpRcvQueueBytes:vector ETV
attr interpolationmode sample-hold
vector 65 scenario.client0.tcp.conn-27 rcvAdv:vector ETV
attr interpolationmode sample-hold
vector 66 scenario.client0.tcp.conn-27 rcvWnd:vector ETV
attr interpolationmode sample-hold
vector 67 scenario.client0.tcp.conn-27 sndAck:vector ETV
attr interpolationmode sample-hold
vector 68 scenario.client0.ppp[0].ppp rcvdPkFromHl:vector(packetBytes) ETV
attr interpolationmode none
attr source packetReceivedFromUpper
attr title "packets received from higher layer, vector(packetBytes)"
vector 69 scenario.client0.ppp[0].ppp.queue packetPushed:vector(packetBytes) ETV
attr interpolationmode none
attr title "packet pushed, vector(packetBytes)"
vector 70 scenario.client0.ppp[0].ppp.queue queueLength:vector ETV
attr interpolationmode sample-hold
attr source "count(packetPushed) - count(packetPopped) - count(packetRemoved) - count(packetDropped)"
attr title "queue length, vector"
vector 71 scenario.client0.ppp[0].ppp.queue packetPopped:vector(packetBytes) ETV
attr interpolationmode none
attr title "packet popped, vector(packetBytes)"
vector 72 scenario.client0.ppp[0].ppp.queue queueingTime:vector ETV
attr interpolationmode none
attr source queueingTime(packetPopped)
attr title "queueing times, vector"
attr unit s
vector 73 scenario.client0.ppp[0].ppp txPk:vector(packetBytes) ETV
attr interpolationmode none
attr source packetSentToLower
attr title "packets transmitted, vector(packetBytes)"
vector 74 scenario.client1.ppp[0].ppp rxPkOk:vector(packetBytes) ETV
attr interpolationmode none
attr source rxPkOk
attr title "packets received OK, vector(packetBytes)"
vector 75 scenario.client1.ppp[0].ppp passedUpPk:vector(packetBytes) ETV
attr interpolationmode none
attr source packetSentToUpper
attr title "packets passed to higher layer, vector(packetBytes)"
vector 76 scenario.client1.tcp.conn-1 rcvSeq:vector ETV
attr interpolationmode sample-hold
vector 77 scenario.client1.tcp.conn-1 rcvAck:vector ETV
attr interpolationmode sample-hold
vector 78 scenario.client1.tcp.conn-28 rcvAdv:vector ETV
attr interpolationmode sample-hold
vector 79 scenario.client1.tcp.conn-28 sndWnd:vector ETV
attr interpolationmode sample-hold
vector 80 scenario.client1.tcp.conn-28 tcpRcvQueueBytes:vector ETV
attr interpolationmode sample-hold
vector 81 scenario.client1.tcp.conn-28 rcvWnd:vector ETV
attr interpolationmode sample-hold
vector 82 scenario.client1.tcp.conn-28 sndAck:vector ETV
attr interpolationmode sample-hold
vector 83 scenario.client1.ppp[0].ppp rcvdPkFromHl:vector(packetBytes) ETV
attr interpolationmode none
attr source packetReceivedFromUpper
attr title "packets received from higher layer, vector(packetBytes)"
vector 84 scenario.client1.ppp[0].ppp.queue packetPushed:vector(packetBytes) ETV
attr interpolationmode none
attr title "packet pushed, vector(packetBytes)"
vector 85 scenario.client1.ppp[0].ppp.queue queueLength:vector ETV
attr interpolationmode sample-hold
attr source "count(packetPushed) - count(packetPopped) - count(packetRemoved) - count(packetDropped)"
attr title "queue length, vector"
vector 86 scenario.client1.ppp[0].ppp.queue packetPopped:vector(packetBytes) ETV
attr interpolationmode none
attr title "packet popped, vector(packetBytes)"
vector 87 scenario.client1.ppp[0].ppp.queue queueingTime:vector ETV
attr interpolationmode none
attr source queueingTime(packetPopped)
attr title "queueing times, vector"
attr unit s
vector 88 scenario.client1.ppp[0].ppp txPk:vector(packetBytes) ETV
attr interpolationmode none
attr source packetSentToLower
attr title "packets transmitted, vector(packetBytes)"
vector 89 scenario.client0.ppp[0].ppp rxPkOk:vector(packetBytes) ETV
attr interpolationmode none
attr source rxPkOk
attr title "packets received OK, vector(packetBytes)"
vector 90 scenario.client0.ppp[0].ppp passedUpPk:vector(packetBytes) ETV
attr interpolationmode none
attr source packetSentToUpper
attr title "packets passed to higher layer, vector(packetBytes)"
vector 91 scenario.client0.tcp.conn-27 rcvSeq:vector ETV
attr interpolationmode sample-hold
vector 92 scenario.client0.tcp.conn-27 rcvAck:vector ETV
attr interpolationmode sample-hold
vector 93 scenario.client0.tcp.conn-27 sndWnd:vector ETV
attr interpolationmode sample-hold
vector 94 scenario.client0.tcp.conn-27 unacked:vector ETV
attr interpolationmode sample-hold
vector 95 scenario.client1.tcp.conn-28 rcvSeq:vector ETV
attr interpolationmode sample-hold
vector 96 scenario.client1.tcp.conn-28 rcvAck:vector ETV
attr interpolationmode sample-hold
vector 97 scenario.client1.tcp.conn-28 unacked:vector ETV
attr interpolationmode sample-hold
vector 98 scenario.client1.tcp.conn-28 cwnd:vector ETV
attr interpolationmode sample-hold
vector 99 scenario.client1.tcp.conn-28 ssthresh:vector ETV
attr interpolationmode sample-hold
vector 100 scenario.client1.tcp.conn-28 dupAcks:vector ETV
attr interpolationmode sample-hold
vector 101 scenario.client0.tcp.conn-27 rtt:vector ETV
attr interpolationmode sample-hold
vector 102 scenario.client0.tcp.conn-27 srtt:vector ETV
attr interpolationmode sample-hold
vector 103 scenario.client0.tcp.conn-27 rttvar:vector ETV
attr interpolationmode sample-hold
vector 104 scenario.client0.tcp.conn-27 rto:vector ETV
attr interpolationmode sample-hold
vector 105 scenario.client0.tcp.conn-27 cwnd:vector ETV
attr interpolationmode sample-hold
vector 106 scenario.client0.tcp.conn-27 ssthresh:vector ETV
attr interpolationmode sample-hold
vector 107 scenario.client0.tcp.conn-27 dupAcks:vector ETV
attr interpolationmode sample-hold
vector 108 scenario.client2.tcp.conn-29 tcpRcvQueueBytes:vector ETV
attr interpolationmode sample-hold
vector 109 scenario.client2.tcp.conn-29 rcvAdv:vector ETV
attr interpolationmode sample-hold
vector 110 scenario.client2.tcp.conn-29 rcvWnd:vector ETV
attr interpolationmode sample-hold
vector 111 scenario.client2.tcp.conn-29 sndAck:vector ETV
attr interpolationmode sample-hold
vector 112 scenario.client2.ppp[1].ppp rcvdPkFromHl:vector(packetBytes) ETV
attr interpolationmode none
attr source packetReceivedFromUpper
attr title "packets received from higher layer, vector(packetBytes)"
vector 113 scenario.client2.ppp[1].ppp.queue packetPushed:vector(packetBytes) ETV
attr interpolationmode none
attr title "packet pushed, vector(packetBytes)"
vector 114 scenario.client2.ppp[1].ppp.queue queueLength:vector ETV
attr interpolationmode sample-hold
attr source "count(packetPushed) - count(packetPopped) - count(packetRemoved) - count(packetDropped)"
attr title "queue length, vector"
vector 115 scenario.client2.ppp[1].ppp.queue packetPopped:vector(packetBytes) ETV
attr interpolationmode none
attr title "packet popped, vector(packetBytes)"
vector 116 scenario.client2.ppp[1].ppp.queue queueingTime:vector ETV
attr interpolationmode none
attr source queueingTime(packetPopped)
attr title "queueing times, vector"
attr unit s
vector 117 scenario.client2.ppp[1].ppp txPk:vector(packetBytes) ETV
attr interpolationmode none
attr source packetSentToLower
attr title "packets transmitted, vector(packetBytes)"
vector 118 scenario.client1.ppp[1].ppp rxPkOk:vector(packetBytes) ETV
attr interpolationmode none
attr source rxPkOk
attr title "packets received OK, vector(packetBytes)"
vector 119 scenario.client1.ppp[1].ppp passedUpPk:vector(packetBytes) ETV
attr interpolationmode none
attr source packetSentToUpper
attr title "packets passed to higher layer, vector(packetBytes)"
vector 120 scenario.client1.tcp.conn-30 rcvAdv:vector ETV
attr interpolationmode sample-hold
vector 121 scenario.client1.tcp.conn-30 sndWnd:vector ETV
attr interpolationmode sample-hold
vector 122 scenario.client1.tcp.conn-30 tcpRcvQueueBytes:vector ETV
attr interpolationmode sample-hold
vector 123 scenario.client1.tcp.conn-30 rcvWnd:vector ETV
attr interpolationmode sample-hold
vector 124 scenario.client1.tcp.conn-30 sndAck:vector ETV
attr interpolationmode sample-hold
vector 125 scenario.client1.ppp[1].ppp rcvdPkFromHl:vector(packetBytes) ETV
attr interpolationmode none
attr source packetReceivedFromUpper
attr title "packets received from higher layer, vector(packetBytes)"
vector 126 scenario.client1.ppp[1].ppp.queue packetPushed:vector(packetBytes) ETV
attr interpolationmode none
attr title "packet pushed, vector(packetBytes)"
vector 127 scenario.client1.ppp[1].ppp.queue queueLength:vector ETV
attr interpolationmode sample-hold
attr source "count(packetPushed) - count(packetPopped) - count(packetRemoved) - count(packetDropped)"
attr title "queue length, vector"
vector 128 scenario.client1.ppp[1].ppp.queue packetPopped:vector(packetBytes) ETV
attr interpolationmode none
attr title "packet popped, vector(packetBytes)"
vector 129 scenario.client1.ppp[1].ppp.queue queueingTime:vector ETV
attr interpolationmode none
attr source queueingTime(packetPopped)
attr title "queueing times, vector"
attr unit s
vector 130 scenario.client1.ppp[1].ppp txPk:vector(packetBytes) ETV
attr interpolationmode none
attr source packetSentToLower
attr title "packets transmitted, vector(packetBytes)"
vector 131 scenario.client2.ppp[1].ppp rxPkOk:vector(packetBytes) ETV
attr interpolationmode none
attr source rxPkOk
attr title "packets received OK, vector(packetBytes)"
vector 132 scenario.client2.ppp[1].ppp passedUpPk:vector(packetBytes) ETV
attr interpolationmode none
attr source packetSentToUpper
attr title "packets passed to higher layer, vector(packetBytes)"
vector 133 scenario.client2.tcp.conn-29 rcvSeq:vector ETV
attr interpolationmode sample-hold
vector 134 scenario.client2.tcp.conn-29 rcvAck:vector ETV
attr interpolationmode sample-hold
vector 135 scenario.client2.tcp.conn-29 sndWnd:vector ETV
attr interpolationmode sample-hold
vector 136 scenario.client2.tcp.conn-29 unacked:vector ETV
attr interpolationmode sample-hold
vector 137 scenario.client1.tcp.conn-30 rcvSeq:vector ETV
attr interpolationmode sample-hold
vector 138 scenario.client1.tcp.conn-30 rcvAck:vector ETV
attr interpolationmode sample-hold
vector 139 scenario.client1.tcp.conn-30 unacked:vector ETV
attr interpolationmode sample-hold
vector 140 scenario.client1.tcp.conn-30 cwnd:vector ETV
attr interpolationmode sample-hold
vector 141 scenario.client1.tcp.conn-30 ssthresh:vector ETV
attr interpolationmode sample-hold
vector 142 scenario.client1.tcp.conn-30 dupAcks:vector ETV
attr interpolationmode sample-hold
vector 143 scenario.client2.tcp.conn-29 rtt:vector ETV
attr interpolationmode sample-hold
vector 144 scenario.client2.tcp.conn-29 srtt:vector ETV
attr interpolationmode sample-hold
vector 145 scenario.client2.tcp.conn-29 rttvar:vector ETV
attr interpolationmode sample-hold
vector 146 scenario.client2.tcp.conn-29 rto:vector ETV
attr interpolationmode sample-hold
vector 147 scenario.client2.tcp.conn-29 cwnd:vector ETV
attr interpolationmode sample-hold
vector 148 scenario.client2.tcp.conn-29 ssthresh:vector ETV
attr interpolationmode sample-hold
vector 149 scenario.client2.tcp.conn-29 dupAcks:vector ETV
attr interpolationmode sample-hold
vector 150 scenario.client1.tcp.conn-31 tcpRcvQueueBytes:vector ETV
attr interpolationmode sample-hold
vector 151 scenario.client1.tcp.conn-31 rcvAdv:vector ETV
attr interpolationmode sample-hold
vector 152 scenario.client1.tcp.conn-31 rcvWnd:vector ETV
attr interpolationmode sample-hold
vector 153 scenario.client1.tcp.conn-31 sndAck:vector ETV
attr interpolationmode sample-hold
vector 154 scenario.client1.ppp[2].ppp rcvdPkFromHl:vector(packetBytes) ETV
attr interpolationmode none
attr source packetReceivedFromUpper
attr title "packets received from higher layer, vector(packetBytes)"
vector 155 scenario.client1.ppp[2].ppp.queue packetPushed:vector(packetBytes) ETV
attr interpolationmode none
attr title "packet pushed, vector(packetBytes)"
vector 156 scenario.client1.ppp[2].ppp.queue queueLength:vector ETV
attr interpolationmode sample-hold
attr source "count(packetPushed) - count(packetPopped) - count(packetRemoved) - count(packetDropped)"
attr title "queue length, vector"
vector 157 scenario.client1.ppp[2].ppp.queue packetPopped:vector(packetBytes) ETV
attr interpolationmode none
attr title "packet popped, vector(packetBytes)"
vector 158 scenario.client1.ppp[2].ppp.queue queueingTime:vector ETV
attr interpolationmode none
attr source queueingTime(packetPopped)
attr title "queueing times, vector"
attr unit s
vector 159 scenario.client1.ppp[2].ppp txPk:vector(packetBytes) ETV
attr interpolationmode none
attr source packetSentToLower
attr title "packets transmitted, vector(packetBytes)"
vector 160 scenario.client3.ppp[1].ppp rxPkOk:vector(packetBytes) ETV
attr interpolationmode none
attr source rxPkOk
attr title "packets received OK, vector(packetBytes)"
vector 161 scenario.client3.ppp[1].ppp passedUpPk:vector(packetBytes) ETV
attr interpolationmode none
attr source packetSentToUpper
attr title "packets passed to higher layer, vector(packetBytes)"
vector 162 scenario.client3.tcp.conn-3 rcvSeq:vector ETV
attr interpolationmode sample-hold
vector 163 scenario.client3.tcp.conn-3 rcvAck:vector ETV
attr interpolationmode sample-hold
vector 164 scenario.client3.tcp.conn-32 rcvAdv:vector ETV
attr interpolationmode sample-hold
vector 165 scenario.client3.tcp.conn-32 sndWnd:vector ETV
attr interpolationmode sample-hold
vector 166 scenario.client3.tcp.conn-32 tcpRcvQueueBytes:vector ETV
attr interpolationmode sample-hold
vector 167 scenario.client3.tcp.conn-32 rcvWnd:vector ETV
attr interpolationmode sample-hold
vector 168 scenario.client3.tcp.conn-32 sndAck:vector ETV
attr interpolationmode sample-hold
vector 169 scenario.client3.ppp[1].ppp rcvdPkFromHl:vector(packetBytes) ETV
attr interpolationmode none
attr source packetReceivedFromUpper
attr title "packets received from higher layer, vector(packetBytes)"
vector 170 scenario.client3.ppp[1].ppp.queue packetPushed:vector(packetBytes) ETV
attr interpolationmode none
attr title "packet pushed, vector(packetBytes)"
vector 171 scenario.client3.ppp[1].ppp.queue queueLength:vector ETV
attr interpolationmode sample-hold
attr source "count(packetPushed) - count(packetPopped) - count(packetRemoved) - count(packetDropped)"
attr title "queue length, vector"
vector 172 scenario.client3.ppp[1].ppp.queue packetPopped:vector(packetBytes) ETV
attr interpolationmode none
attr title "packet popped, vector(packetBytes)"
vector 173 scenario.client3.ppp[1].ppp.queue queueingTime:vector ETV
attr interpolationmode none
attr source queueingTime(packetPopped)
attr title "queueing times, vector"
attr unit s
vector 174 scenario.client3.ppp[1].ppp txPk:vector(packetBytes) ETV
attr interpolationmode none
attr source packetSentToLower
attr title "packets transmitted, vector(packetBytes)"
vector 175 scenario.client1.ppp[2].ppp rxPkOk:vector(packetBytes) ETV
attr interpolationmode none
attr source rxPkOk
attr title "packets received OK, vector(packetBytes)"
vector 176 scenario.client1.ppp[2].ppp passedUpPk:vector(packetBytes) ETV
attr interpolationmode none
attr source packetSentToUpper
attr title "packets passed to higher layer, vector(packetBytes)"
vector 177 scenario.client1.tcp.conn-31 rcvSeq:vector ETV
attr interpolationmode sample-hold
vector 178 scenario.client1.tcp.conn-31 rcvAck:vector ETV
attr interpolationmode sample-hold
vector 179 scenario.client1.tcp.conn-31 sndWnd:vector ETV
attr interpolationmode sample-hold
vector 180 scenario.client1.tcp.conn-31 unacked:vector ETV
attr interpolationmode sample-hold
vector 181 scenario.client3.tcp.conn-32 rcvSeq:vector ETV
attr interpolationmode sample-hold
vector 182 scenario.client3.tcp.conn-32 rcvAck:vector ETV
attr interpolationmode sample-hold
vector 183 scenario.client3.tcp.conn-32 unacked:vector ETV
attr interpolationmode sample-hold
vector 184 scenario.client3.tcp.conn-32 cwnd:vector ETV
attr interpolationmode sample-hold
vector 185 scenario.client3.tcp.conn-32 ssthresh:vector ETV
attr interpolationmode sample-hold
vector 186 scenario.client3.tcp.conn-32 dupAcks:vector ETV
attr interpolationmode sample-hold
vector 187 scenario.client1.tcp.conn-31 rtt:vector ETV
attr interpolationmode sample-hold
vector 188 scenario.client1.tcp.conn-31 srtt:vector ETV
attr interpolationmode sample-hold
vector 189 scenario.client1.tcp.conn-31 rttvar:vector ETV
attr interpolationmode sample-hold
vector 190 scenario.client1.tcp.conn-31 rto:vector ETV
attr interpolationmode sample-hold
vector 191 scenario.client1.tcp.conn-31 cwnd:vector ETV
attr interpolationmode sample-hold
vector 192 scenario.client1.tcp.conn-31 ssthresh:vector ETV
attr interpolationmode sample-hold
vector 193 scenario.client1.tcp.conn-31 dupAcks:vector ETV
attr interpolationmode sample-hold
vector 194 scenario.client1.tcp.conn-33 tcpRcvQueueBytes:vector ETV
attr interpolationmode sample-hold
vector 195 scenario.client1.tcp.conn-33 rcvAdv:vector ETV
attr interpolationmode sample-hold
vector 196 scenario.client1.tcp.conn-33 rcvWnd:vector ETV
attr interpolationmode sample-hold
vector 197 scenario.client1.tcp.conn-33 sndAck:vector ETV
attr interpolationmode sample-hold
vector 198 scenario.client2.tcp.conn-2 rcvSeq:vector ETV
attr interpolationmode sample-hold
vector 199 scenario.client2.tcp.conn-2 rcvAck:vector ETV
attr interpolationmode sample-hold
vector 200 scenario.client2.tcp.conn-34 rcvAdv:vector ETV
attr interpolationmode sample-hold
vector 201 scenario.client2.tcp.conn-34 sndWnd:vector ETV
attr interpolationmode sample-hold
vector 202 scenario.client2.tcp.conn-34 tcpRcvQueueBytes:vector ETV
attr interpolationmode sample-hold
vector 203 scenario.client2.tcp.conn-34 rcvWnd:vector ETV
attr interpolationmode sample-hold
vector 204 scenario.client2.tcp.conn-34 sndAck:vector ETV
attr interpolationmode sample-hold
vector 205 scenario.client1.tcp.conn-33 rcvSeq:vector ETV
attr interpolationmode sample-hold
vector 206 scenario.client1.tcp.conn-33 rcvAck:vector ETV
attr interpolationmode sample-hold
vector 207 scenario.client1.tcp.conn-33 sndWnd:vector ETV
attr interpolationmode sample-hold
vector 208 scenario.client1.tcp.conn-33 unacked:vector ETV
attr interpolationmode sample-hold
vector 209 scenario.client2.tcp.conn-34 rcvSeq:vector ETV
attr interpolationmode sample-hold
vector 210 scenario.client2.tcp.conn-34 rcvAck:vector ETV
attr interpolationmode sample-hold
vector 211 scenario.client2.tcp.conn-34 unacked:vector ETV
attr interpolationmode sample-hold
vector 212 scenario.client2.tcp.conn-34 cwnd:vector ETV
attr interpolationmode sample-hold
vector 213 scenario.client2.tcp.conn-34 ssthresh:vector ETV
attr interpolationmode sample-hold
vector 214 scenario.client2.tcp.conn-34 dupAcks:vector ETV
attr interpolationmode sample-hold
vector 215 scenario.client1.tcp.conn-33 rtt:vector ETV
attr interpolationmode sample-hold
vector 216 scenario.client1.tcp.conn-33 srtt:vector ETV
attr interpolationmode sample-hold
vector 217 scenario.client1.tcp.conn-33 rttvar:vector ETV
attr interpolationmode sample-hold
vector 218 scenario.client1.tcp.conn-33 rto:vector ETV
attr interpolationmode sample-hold
vector 219 scenario.client1.tcp.conn-33 cwnd:vector ETV
attr interpolationmode sample-hold
vector 220 scenario.client1.tcp.conn-33 ssthresh:vector ETV
attr interpolationmode sample-hold
vector 221 scenario.client1.tcp.conn-33 dupAcks:vector ETV
attr interpolationmode sample-hold
vector 222 scenario.client1.tcp.conn-35 tcpRcvQueueBytes:vector ETV
attr interpolationmode sample-hold
vector 223 scenario.client1.tcp.conn-35 rcvAdv:vector ETV
attr interpolationmode sample-hold
vector 224 scenario.client1.tcp.conn-35 rcvWnd:vector ETV
attr interpolationmode sample-hold
vector 225 scenario.client1.tcp.conn-35 sndAck:vector ETV
attr interpolationmode sample-hold
vector 226 scenario.client0.tcp.conn-36 rcvAdv:vector ETV
attr interpolationmode sample-hold
vector 227 scenario.client0.tcp.conn-36 sndWnd:vector ETV
attr interpolationmode sample-hold
vector 228 scenario.client0.tcp.conn-36 tcpRcvQueueBytes:vector ETV
attr interpolationmode sample-hold
vector 229 scenario.client0.tcp.conn-36 rcvWnd:vector ETV
attr interpolationmode sample-hold
vector 230 scenario.client0.tcp.conn-36 sndAck:vector ETV
attr interpolationmode sample-hold
vector 231 scenario.client1.tcp.conn-35 rcvSeq:vector ETV
attr interpolationmode sample-hold
vector 232 scenario.client1.tcp.conn-35 rcvAck:vector ETV
attr interpolationmode sample-hold
vector 233 scenario.client1.tcp.conn-35 sndWnd:vector ETV
attr interpolationmode sample-hold
vector 234 scenario.client1.tcp.conn-35 unacked:vector ETV
attr interpolationmode sample-hold
vector 235 scenario.client0.tcp.conn-36 rcvSeq:vector ETV
attr interpolationmode sample-hold
vector 236 scenario.client0.tcp.conn-36 rcvAck:vector ETV
attr interpolationmode sample-hold
vector 237 scenario.client0.tcp.conn-36 unacked:vector ETV
attr interpolationmode sample-hold
vector 238 scenario.client0.tcp.conn-36 cwnd:vector ETV
attr interpolationmode sample-hold
vector 239 scenario.client0.tcp.conn-36 ssthresh:vector ETV
attr interpolationmode sample-hold
vector 240 scenario.client0.tcp.conn-36 dupAcks:vector ETV
attr interpolationmode sample-hold
vector 241 scenario.client1.tcp.conn-35 rtt:vector ETV
attr interpolationmode sample-hold
vector 242 scenario.client1.tcp.conn-35 srtt:vector ETV
attr interpolationmode sample-hold
vector 243 scenario.client1.tcp.conn-35 rttvar:vector ETV
attr interpolationmode sample-hold
vector 244 scenario.client1.tcp.conn-35 rto:vector ETV
attr interpolationmode sample-hold
vector 245 scenario.client1.tcp.conn-35 cwnd:vector ETV
attr interpolationmode sample-hold
vector 246 scenario.client1.tcp.conn-35 ssthresh:vector ETV
attr interpolationmode sample-hold
vector 247 scenario.client1.tcp.conn-35 dupAcks:vector ETV
attr interpolationmode sample-hold
vector 248 scenario.client2.tcp.conn-37 tcpRcvQueueBytes:vector ETV
attr interpolationmode sample-hold
vector 249 scenario.client2.tcp.conn-37 rcvAdv:vector ETV
attr interpolationmode sample-hold
vector 250 scenario.client2.tcp.conn-37 rcvWnd:vector ETV
attr interpolationmode sample-hold
vector 251 scenario.client2.tcp.conn-37 sndAck:vector ETV
attr interpolationmode sample-hold
vector 252 scenario.client2.ppp[2].ppp rcvdPkFromHl:vector(packetBytes) ETV
attr interpolationmode none
attr source packetReceivedFromUpper
attr title "packets received from higher layer, vector(packetBytes)"
vector 253 scenario.client2.ppp[2].ppp.queue packetPushed:vector(packetBytes) ETV
attr interpolationmode none
attr title "packet pushed, vector(packetBytes)"
vector 254 scenario.client2.ppp[2].ppp.queue queueLength:vector ETV
attr interpolationmode sample-hold
attr source "count(packetPushed) - count(packetPopped) - count(packetRemoved) - count(packetDropped)"
attr title "queue length, vector"
vector 255 scenario.client2.ppp[2].ppp.queue packetPopped:vector(packetBytes) ETV
attr interpolationmode none
attr title "packet popped, vector(packetBytes)"
vector 256 scenario.client2.ppp[2].ppp.queue queueingTime:vector ETV
attr interpolationmode none
attr source queueingTime(packetPopped)
attr title "queueing times, vector"
attr unit s
vector 257 scenario.client2.ppp[2].ppp txPk:vector(packetBytes) ETV
attr interpolationmode none
attr source packetSentToLower
attr title "packets transmitted, vector(packetBytes)"
vector 258 scenario.client3.ppp[2].ppp rxPkOk:vector(packetBytes) ETV
attr interpolationmode none
attr source rxPkOk
attr title "packets received OK, vector(packetBytes)"
vector 259 scenario.client3.ppp[2].ppp passedUpPk:vector(packetBytes) ETV
attr interpolationmode none
attr source packetSentToUpper
attr title "packets passed to higher layer, vector(packetBytes)"
vector 260 scenario.client3.tcp.conn-38 rcvAdv:vector ETV
attr interpolationmode sample-hold
vector 261 scenario.client3.tcp.conn-38 sndWnd:vector ETV
attr interpolationmode sample-hold
vector 262 scenario.client3.tcp.conn-38 tcpRcvQueueBytes:vector ETV
attr interpolationmode sample-hold
vector 263 scenario.client3.tcp.conn-38 rcvWnd:vector ETV
attr interpolationmode sample-hold
vector 264 scenario.client3.tcp.conn-38 sndAck:vector ETV
attr interpolationmode sample-hold
vector 265 scenario.client3.ppp[2].ppp rcvdPkFromHl:vector(packetBytes) ETV
attr interpolationmode none
attr source packetReceivedFromUpper
attr title "packets received from higher layer, vector(packetBytes)"
vector 266 scenario.client3.ppp[2].ppp.queue packetPushed:vector(packetBytes) ETV
attr interpolationmode none
attr title "packet pushed, vector(packetBytes)"
vector 267 scenario.client3.ppp[2].ppp.queue queueLength:vector ETV
attr interpolationmode sample-hold
attr source "count(packetPushed) - count(packetPopped) - count(packetRemoved) - count(packetDropped)"
attr title "queue length, vector"
vector 268 scenario.client3.ppp[2].ppp.queue packetPopped:vector(packetBytes) ETV
attr interpolationmode none
attr title "packet popped, vector(packetBytes)"
vector 269 scenario.client3.ppp[2].ppp.queue queueingTime:vector ETV
attr interpolationmode none
attr source queueingTime(packetPopped)
attr title "queueing times, vector"
attr unit s
vector 270 scenario.client3.ppp[2].ppp txPk:vector(packetBytes) ETV
attr interpolationmode none
attr source packetSentToLower
attr title "packets transmitted, vector(packetBytes)"
vector 271 scenario.client2.ppp[2].ppp rxPkOk:vector(packetBytes) ETV
attr interpolationmode none
attr source rxPkOk
attr title "packets received OK, vector(packetBytes)"
vector 272 scenario.client2.ppp[2].ppp passedUpPk:vector(packetBytes) ETV
attr interpolationmode none
attr source packetSentToUpper
attr title "packets passed to higher layer, vector(packetBytes)"
vector 273 scenario.client2.tcp.conn-37 rcvSeq:vector ETV
attr interpolationmode sample-hold
vector 274 scenario.client2.tcp.conn-37 rcvAck:vector ETV
attr interpolationmode sample-hold
vector 275 scenario.client2.tcp.conn-37 sndWnd:vector ETV
attr interpolationmode sample-hold
vector 276 scenario.client2.tcp.conn-37 unacked:vector ETV
attr interpolationmode sample-hold
vector 277 scenario.client3.tcp.conn-38 rcvSeq:vector ETV
attr interpolationmode sample-hold
vector 278 scenario.client3.tcp.conn-38 rcvAck:vector ETV
attr interpolationmode sample-hold
vector 279 scenario.client3.tcp.conn-38 unacked:vector ETV
attr interpolationmode sample-hold
vector 280 scenario.client3.tcp.conn-38 cwnd:vector ETV
attr interpolationmode sample-hold
vector 281 scenario.client3.tcp.conn-38 ssthresh:vector ETV
attr interpolationmode sample-hold
vector 282 scenario.client3.tcp.conn-38 dupAcks:vector ETV
attr interpolationmode sample-hold
vector 283 scenario.client2.tcp.conn-37 rtt:vector ETV
attr interpolationmode sample-hold
vector 284 scenario.client2.tcp.conn-37 srtt:vector ETV
attr interpolationmode sample-hold
vector 285 scenario.client2.tcp.conn-37 rttvar:vector ETV
attr interpolationmode sample-hold
vector 286 scenario.client2.tcp.conn-37 rto:vector ETV
attr interpolationmode sample-hold
vector 287 scenario.client2.tcp.conn-37 cwnd:vector ETV
attr interpolationmode sample-hold
vector 288 scenario.client2.tcp.conn-37 ssthresh:vector ETV
attr interpolationmode sample-hold
vector 289 scenario.client2.tcp.conn-37 dupAcks:vector ETV
attr interpolationmode sample-hold
vector 290 scenario.client0.tcp.conn-39 tcpRcvQueueBytes:vector ETV
attr interpolationmode sample-hold
vector 291 scenario.client0.tcp.conn-39 rcvAdv:vector ETV
attr interpolationmode sample-hold
vector 292 scenario.client0.tcp.conn-39 rcvWnd:vector ETV
attr interpolationmode sample-hold
vector 293 scenario.client0.tcp.conn-39 sndAck:vector ETV
attr interpolationmode sample-hold
vector 294 scenario.client2.tcp.conn-40 rcvAdv:vector ETV
attr interpolationmode sample-hold
vector 295 scenario.client2.tcp.conn-40 sndWnd:vector ETV
attr interpolationmode sample-hold
vector 296 scenario.client2.tcp.conn-40 tcpRcvQueueBytes:vector ETV
attr interpolationmode sample-hold
vector 297 scenario.client2.tcp.conn-40 rcvWnd:vector ETV
attr interpolationmode sample-hold
vector 298 scenario.client2.tcp.conn-40 sndAck:vector ETV
attr interpolationmode sample-hold
vector 299 scenario.client0.tcp.conn-39 rcvSeq:vector ETV
attr interpolationmode sample-hold
vector 300 scenario.client0.tcp.conn-39 rcvAck:vector ETV
attr interpolationmode sample-hold
vector 301 scenario.client0.tcp.conn-39 sndWnd:vector ETV
attr interpolationmode sample-hold
vector 302 scenario.client0.tcp.conn-39 unacked:vector ETV
attr interpolationmode sample-hold
vector 303 scenario.client2.tcp.conn-40 rcvSeq:vector ETV
attr interpolationmode sample-hold
vector 304 scenario.client2.tcp.conn-40 rcvAck:vector ETV
attr interpolationmode sample-hold
vector 305 scenario.client2.tcp.conn-40 unacked:vector ETV
attr interpolationmode sample-hold
vector 306 scenario.client2.tcp.conn-40 cwnd:vector ETV
attr interpolationmode sample-hold
vector 307 scenario.client2.tcp.conn-40 ssthresh:vector ETV
attr interpolationmode sample-hold
vector 308 scenario.client2.tcp.conn-40 dupAcks:vector ETV
attr interpolationmode sample-hold
vector 309 scenario.client0.tcp.conn-39 rtt:vector ETV
attr interpolationmode sample-hold
vector 310 scenario.client0.tcp.conn-39 srtt:vector ETV
attr interpolationmode sample-hold
vector 311 scenario.client0.tcp.conn-39 rttvar:vector ETV
attr interpolationmode sample-hold
vector 312 scenario.client0.tcp.conn-39 rto:vector ETV
attr interpolationmode sample-hold
vector 313 scenario.client0.tcp.conn-39 cwnd:vector ETV
attr interpolationmode sample-hold
vector 314 scenario.client0.tcp.conn-39 ssthresh:vector ETV
attr interpolationmode sample-hold
vector 315 scenario.client0.tcp.conn-39 dupAcks:vector ETV
attr interpolationmode sample-hold
vector 316 scenario.client3.tcp.conn-41 tcpRcvQueueBytes:vector ETV
attr interpolationmode sample-hold
vector 317 scenario.client3.tcp.conn-41 rcvAdv:vector ETV
attr interpolationmode sample-hold
vector 318 scenario.client3.tcp.conn-41 rcvWnd:vector ETV
attr interpolationmode sample-hold
vector 319 scenario.client3.tcp.conn-41 sndAck:vector ETV
attr interpolationmode sample-hold
vector 320 scenario.client3.ppp[0].ppp rcvdPkFromHl:vector(packetBytes) ETV
attr interpolationmode none
attr source packetReceivedFromUpper
attr title "packets received from higher layer, vector(packetBytes)"
vector 321 scenario.client3.ppp[0].ppp.queue packetPushed:vector(packetBytes) ETV
attr interpolationmode none
attr title "packet pushed, vector(packetBytes)"
vector 322 scenario.client3.ppp[0].ppp.queue queueLength:vector ETV
attr interpolationmode sample-hold
attr source "count(packetPushed) - count(packetPopped) - count(packetRemoved) - count(packetDropped)"
attr title "queue length, vector"
vector 323 scenario.client3.ppp[0].ppp.queue packetPopped:vector(packetBytes) ETV
attr interpolationmode none
attr title "packet popped, vector(packetBytes)"
vector 324 scenario.client3.ppp[0].ppp.queue queueingTime:vector ETV
attr interpolationmode none
attr source queueingTime(packetPopped)
attr title "queueing times, vector"
attr unit s
vector 325 scenario.client3.ppp[0].ppp txPk:vector(packetBytes) ETV
attr interpolationmode none
attr source packetSentToLower
attr title "packets transmitted, vector(packetBytes)"
vector 326 scenario.client0.ppp[2].ppp rxPkOk:vector(packetBytes) ETV
attr interpolationmode none
attr source rxPkOk
attr title "packets received OK, vector(packetBytes)"
vector 327 scenario.client0.ppp[2].ppp passedUpPk:vector(packetBytes) ETV
attr interpolationmode none
attr source packetSentToUpper
attr title "packets passed to higher layer, vector(packetBytes)"
vector 328 scenario.client0.tcp.conn-42 rcvAdv:vector ETV
attr interpolationmode sample-hold
vector 329 scenario.client0.tcp.conn-42 sndWnd:vector ETV
attr interpolationmode sample-hold
vector 330 scenario.client0.tcp.conn-42 tcpRcvQueueBytes:vector ETV
attr interpolationmode sample-hold
vector 331 scenario.client0.tcp.conn-42 rcvWnd:vector ETV
attr interpolationmode sample-hold
vector 332 scenario.client0.tcp.conn-42 sndAck:vector ETV
attr interpolationmode sample-hold
vector 333 scenario.client0.ppp[2].ppp rcvdPkFromHl:vector(packetBytes) ETV
attr interpolationmode none
attr source packetReceivedFromUpper
attr title "packets received from higher layer, vector(packetBytes)"
vector 334 scenario.client0.ppp[2].ppp.queue packetPushed:vector(packetBytes) ETV
attr interpolationmode none
attr title "packet pushed, vector(packetBytes)"
vector 335 scenario.client0.ppp[2].ppp.queue queueLength:vector ETV
attr interpolationmode sample-hold
attr source "count(packetPushed) - count(packetPopped) - count(packetRemoved) - count(packetDropped)"
attr title "queue length, vector"
vector 336 scenario.client0.ppp[2].ppp.queue packetPopped:vector(packetBytes) ETV
attr interpolationmode none
attr title "packet popped, vector(packetBytes)"
vector 337 scenario.client0.ppp[2].ppp.queue queueingTime:vector ETV
attr interpolationmode none
attr source queueingTime(packetPopped)
attr title "queueing times, vector"
attr unit s
vector 338 scenario.client0.ppp[2].ppp txPk:vector(packetBytes) ETV
attr interpolationmode none
attr source packetSentToLower
attr title "packets transmitted, vector(packetBytes)"
vector 339 scenario.client3.ppp[0].ppp rxPkOk:vector(packetBytes) ETV
attr interpolationmode none
attr source rxPkOk
attr title "packets received OK, vector(packetBytes)"
vector 340 scenario.client3.ppp[0].ppp passedUpPk:vector(packetBytes) ETV
attr interpolationmode none
attr source packetSentToUpper
attr title "packets passed to higher layer, vector(packetBytes)"
vector 341 scenario.client3.tcp.conn-41 rcvSeq:vector ETV
attr interpolationmode sample-hold
vector 342 scenario.client3.tcp.conn-41 rcvAck:vector ETV
attr interpolationmode sample-hold
vector 343 scenario.client3.tcp.conn-41 sndWnd:vector ETV
attr interpolationmode sample-hold
vector 344 scenario.client3.tcp.conn-41 unacked:vector ETV
attr interpolationmode sample-hold
vector 345 scenario.client0.tcp.conn-42 rcvSeq:vector ETV
attr interpolationmode sample-hold
vector 346 scenario.client0.tcp.conn-42 rcvAck:vector ETV
attr interpolationmode sample-hold
vector 347 scenario.client0.tcp.conn-42 unacked:vector ETV
attr interpolationmode sample-hold
vector 348 scenario.client0.tcp.conn-42 cwnd:vector ETV
attr interpolationmode sample-hold
vector 349 scenario.client0.tcp.conn-42 ssthresh:vector ETV
attr interpolationmode sample-hold
vector 350 scenario.client0.tcp.conn-42 dupAcks:vector ETV
attr interpolationmode sample-hold
vector 351 scenario.client3.tcp.conn-41 rtt:vector ETV
attr interpolationmode sample-hold
vector 352 scenario.client3.tcp.conn-41 srtt:vector ETV
attr interpolationmode sample-hold
vector 353 scenario.client3.tcp.conn-41 rttvar:vector ETV
attr interpolationmode sample-hold
vector 354 scenario.client3.tcp.conn-41 rto:vector ETV
attr interpolationmode sample-hold
vector 355 scenario.client3.tcp.conn-41 cwnd:vector ETV
attr interpolationmode sample-hold
vector 356 scenario.client3.tcp.conn-41 ssthresh:vector ETV
attr interpolationmode sample-hold
vector 357 scenario.client3.tcp.conn-41 dupAcks:vector ETV
attr interpolationmode sample-hold
vector 358 scenario.client3.tcp.conn-43 tcpRcvQueueBytes:vector ETV
attr interpolationmode sample-hold
vector 359 scenario.client3.tcp.conn-43 rcvAdv:vector ETV
attr interpolationmode sample-hold
vector 360 scenario.client3.tcp.conn-43 rcvWnd:vector ETV
attr interpolationmode sample-hold
vector 361 scenario.client3.tcp.conn-43 sndAck:vector ETV
attr interpolationmode sample-hold
vector 362 scenario.client1.tcp.conn-44 rcvAdv:vector ETV
attr interpolationmode sample-hold
vector 363 scenario.client1.tcp.conn-44 sndWnd:vector ETV
attr interpolationmode sample-hold
vector 364 scenario.client1.tcp.conn-44 tcpRcvQueueBytes:vector ETV
attr interpolationmode sample-hold
vector 365 scenario.client1.tcp.conn-44 rcvWnd:vector ETV
attr interpolationmode sample-hold
vector 366 scenario.client1.tcp.conn-44 sndAck:vector ETV
attr interpolationmode sample-hold
vector 367 scenario.client3.tcp.conn-43 rcvSeq:vector ETV
attr interpolationmode sample-hold
vector 368 scenario.client3.tcp.conn-43 rcvAck:vector ETV
attr interpolationmode sample-hold
vector 369 scenario.client3.tcp.conn-43 sndWnd:vector ETV
attr interpolationmode sample-hold
vector 370 scenario.client3.tcp.conn-43 unacked:vector ETV
attr interpolationmode sample-hold
vector 371 scenario.client1.tcp.conn-44 rcvSeq:vector ETV
attr interpolationmode sample-hold
vector 372 scenario.client1.tcp.conn-44 rcvAck:vector ETV
attr interpolationmode sample-hold
vector 373 scenario.client1.tcp.conn-44 unacked:vector ETV
attr interpolationmode sample-hold
vector 374 scenario.client1.tcp.conn-44 cwnd:vector ETV
attr interpolationmode sample-hold
vector 375 scenario.client1.tcp.conn-44 ssthresh:vector ETV
attr interpolationmode sample-hold
vector 376 scenario.client1.tcp.conn-44 dupAcks:vector ETV
attr interpolationmode sample-hold
vector 377 scenario.client3.tcp.conn-43 rtt:vector ETV
attr interpolationmode sample-hold
vector 378 scenario.client3.tcp.conn-43 srtt:vector ETV
attr interpolationmode sample-hold
vector 379 scenario.client3.tcp.conn-43 rttvar:vector ETV
attr interpolationmode sample-hold
vector 380 scenario.client3.tcp.conn-43 rto:vector ETV
attr interpolationmode sample-hold
vector 381 scenario.client3.tcp.conn-43 cwnd:vector ETV
attr interpolationmode sample-hold
vector 382 scenario.client3.tcp.conn-43 ssthresh:vector ETV
attr interpolationmode sample-hold
vector 383 scenario.client3.tcp.conn-43 dupAcks:vector ETV
attr interpolationmode sample-hold
vector 384 scenario.client0.tcp.conn-45 tcpRcvQueueBytes:vector ETV
attr interpolationmode sample-hold
vector 385 scenario.client0.tcp.conn-45 rcvAdv:vector ETV
attr interpolationmode sample-hold
vector 386 scenario.client0.tcp.conn-45 rcvWnd:vector ETV
attr interpolationmode sample-hold
vector 387 scenario.client0.tcp.conn-45 sndAck:vector ETV
attr interpolationmode sample-hold
vector 388 scenario.client3.tcp.conn-46 rcvAdv:vector ETV
attr interpolationmode sample-hold
vector 389 scenario.client3.tcp.conn-46 sndWnd:vector ETV
attr interpolationmode sample-hold
vector 390 scenario.client3.tcp.conn-46 tcpRcvQueueBytes:vector ETV
attr interpolationmode sample-hold
vector 391 scenario.client3.tcp.conn-46 rcvWnd:vector ETV
attr interpolationmode sample-hold
vector 392 scenario.client3.tcp.conn-46 sndAck:vector ETV
attr interpolationmode sample-hold
vector 393 scenario.client0.tcp.conn-45 rcvSeq:vector ETV
attr interpolationmode sample-hold
vector 394 scenario.client0.tcp.conn-45 rcvAck:vector ETV
attr interpolationmode sample-hold
vector 395 scenario.client0.tcp.conn-45 sndWnd:vector ETV
attr interpolationmode sample-hold
vector 396 scenario.client0.tcp.conn-45 unacked:vector ETV
attr interpolationmode sample-hold
vector 397 scenario.client3.tcp.conn-46 rcvSeq:vector ETV
attr interpolationmode sample-hold
vector 398 scenario.client3.tcp.conn-46 rcvAck:vector ETV
attr interpolationmode sample-hold
vector 399 scenario.client3.tcp.conn-46 unacked:vector ETV
attr interpolationmode sample-hold
vector 400 scenario.client3.tcp.conn-46 cwnd:vector ETV
attr interpolationmode sample-hold
vector 401 scenario.client3.tcp.conn-46 ssthresh:vector ETV
attr interpolationmode sample-hold
vector 402 scenario.client3.tcp.conn-46 dupAcks:vector ETV
attr interpolationmode sample-hold
vector 403 scenario.client0.tcp.conn-45 rtt:vector ETV
attr interpolationmode sample-hold
vector 404 scenario.client0.tcp.conn-45 srtt:vector ETV
attr interpolationmode sample-hold
vector 405 scenario.client0.tcp.conn-45 rttvar:vector ETV
attr interpolationmode sample-hold
vector 406 scenario.client0.tcp.conn-45 rto:vector ETV
attr interpolationmode sample-hold
vector 407 scenario.client0.tcp.conn-45 cwnd:vector ETV
attr interpolationmode sample-hold
vector 408 scenario.client0.tcp.conn-45 ssthresh:vector ETV
attr interpolationmode sample-hold
vector 409 scenario.client0.tcp.conn-45 dupAcks:vector ETV
attr interpolationmode sample-hold
vector 410 scenario.client3.tcp.conn-47 tcpRcvQueueBytes:vector ETV
attr interpolationmode sample-hold
vector 411 scenario.client3.tcp.conn-47 rcvAdv:vector ETV
attr interpolationmode sample-hold
vector 412 scenario.client3.tcp.conn-47 rcvWnd:vector ETV
attr interpolationmode sample-hold
vector 413 scenario.client3.tcp.conn-47 sndAck:vector ETV
attr interpolationmode sample-hold
vector 414 scenario.client2.tcp.conn-48 rcvAdv:vector ETV
attr interpolationmode sample-hold
vector 415 scenario.client2.tcp.conn-48 sndWnd:vector ETV
attr interpolationmode sample-hold
vector 416 scenario.client2.tcp.conn-48 tcpRcvQueueBytes:vector ETV
attr interpolationmode sample-hold
vector 417 scenario.client2.tcp.conn-48 rcvWnd:vector ETV
attr interpolationmode sample-hold
vector 418 scenario.client2.tcp.conn-48 sndAck:vector ETV
attr interpolationmode sample-hold
vector 419 scenario.client3.tcp.conn-47 rcvSeq:vector ETV
attr interpolationmode sample-hold
vector 420 scenario.client3.tcp.conn-47 rcvAck:vector ETV
attr interpolationmode sample-hold
vector 421 scenario.client3.tcp.conn-47 sndWnd:vector ETV
attr interpolationmode sample-hold
vector 422 scenario.client3.tcp.conn-47 unacked:vector ETV
attr interpolationmode sample-hold
vector 423 scenario.client2.tcp.conn-48 rcvSeq:vector ETV
attr interpolationmode sample-hold
vector 424 scenario.client2.tcp.conn-48 rcvAck:vector ETV
attr interpolationmode sample-hold
vector 425 scenario.client2.tcp.conn-48 unacked:vector ETV
attr interpolationmode sample-hold
vector 426 scenario.client2.tcp.conn-48 cwnd:vector ETV
attr interpolationmode sample-hold
vector 427 scenario.client2.tcp.conn-48 ssthresh:vector ETV
attr interpolationmode sample-hold
vector 428 scenario.client2.tcp.conn-48 dupAcks:vector ETV
attr interpolationmode sample-hold
vector 429 scenario.client3.tcp.conn-47 rtt:vector ETV
attr interpolationmode sample-hold
vector 430 scenario.client3.tcp.conn-47 srtt:vector ETV
attr interpolationmode sample-hold
vector 431 scenario.client3.tcp.conn-47 rttvar:vector ETV
attr interpolationmode sample-hold
vector 432 scenario.client3.tcp.conn-47 rto:vector ETV
attr interpolationmode sample-hold
vector 433 scenario.client3.tcp.conn-47 cwnd:vector ETV
attr interpolationmode sample-hold
vector 434 scenario.client3.tcp.conn-47 ssthresh:vector ETV
attr interpolationmode sample-hold
vector 435 scenario.client3.tcp.conn-47 dupAcks:vector ETV
attr interpolationmode sample-hold
vector 436 scenario.client0.tcp.conn-49 tcpRcvQueueBytes:vector ETV
attr interpolationmode sample-hold
vector 437 scenario.client0.tcp.conn-49 rcvAdv:vector ETV
attr interpolationmode sample-hold
vector 438 scenario.client0.tcp.conn-49 rcvWnd:vector ETV
attr interpolationmode sample-hold
vector 439 scenario.client0.tcp.conn-49 sndAck:vector ETV
attr interpolationmode sample-hold
vector 440 scenario.client0.ppp[3].ppp rcvdPkFromHl:vector(packetBytes) ETV
attr interpolationmode none
attr source packetReceivedFromUpper
attr title "packets received from higher layer, vector(packetBytes)"
vector 441 scenario.client0.ppp[3].ppp.queue packetPushed:vector(packetBytes) ETV
attr interpolationmode none
attr title "packet pushed, vector(packetBytes)"
vector 442 scenario.client0.ppp[3].ppp.queue queueLength:vector ETV
attr interpolationmode sample-hold
attr source "count(packetPushed) - count(packetPopped) - count(packetRemoved) - count(packetDropped)"
attr title "queue length, vector"
vector 443 scenario.client0.ppp[3].ppp.queue packetPopped:vector(packetBytes) ETV
attr interpolationmode none
attr title "packet popped, vector(packetBytes)"
vector 444 scenario.client0.ppp[3].ppp.queue queueingTime:vector ETV
attr interpolationmode none
attr source queueingTime(packetPopped)
attr title "queueing times, vector"
attr unit s
vector 445 scenario.client0.ppp[3].ppp txPk:vector(packetBytes) ETV
attr interpolationmode none
attr source packetSentToLower
attr title "packets transmitted, vector(packetBytes)"
vector 446 scenario.client4.ppp[0].ppp rxPkOk:vector(packetBytes) ETV
attr interpolationmode none
attr source rxPkOk
attr title "packets received OK, vector(packetBytes)"
vector 447 scenario.client4.ppp[0].ppp passedUpPk:vector(packetBytes) ETV
attr interpolationmode none
attr source packetSentToUpper
attr title "packets passed to higher layer, vector(packetBytes)"
vector 448 scenario.client4.tcp.conn-4 rcvSeq:vector ETV
attr interpolationmode sample-hold
vector 449 scenario.client4.tcp.conn-4 rcvAck:vector ETV
attr interpolationmode sample-hold
vector 450 scenario.client4.tcp.conn-50 rcvAdv:vector ETV
attr interpolationmode sample-hold
vector 451 scenario.client4.tcp.conn-50 sndWnd:vector ETV
attr interpolationmode sample-hold
vector 452 scenario.client4.tcp.conn-50 tcpRcvQueueBytes:vector ETV
attr interpolationmode sample-hold
vector 453 scenario.client4.tcp.conn-50 rcvWnd:vector ETV
attr interpolationmode sample-hold
vector 454 scenario.client4.tcp.conn-50 sndAck:vector ETV
attr interpolationmode sample-hold
vector 455 scenario.client4.ppp[0].ppp rcvdPkFromHl:vector(packetBytes) ETV
attr interpolationmode none
attr source packetReceivedFromUpper
attr title "packets received from higher layer, vector(packetBytes)"
vector 456 scenario.client4.ppp[0].ppp.queue packetPushed:vector(packetBytes) ETV
attr interpolationmode none
attr title "packet pushed, vector(packetBytes)"
vector 457 scenario.client4.ppp[0].ppp.queue queueLength:vector ETV
attr interpolationmode sample-hold
attr source "count(packetPushed) - count(packetPopped) - count(packetRemoved) - count(packetDropped)"
attr title "queue length, vector"
vector 458 scenario.client4.ppp[0].ppp.queue packetPopped:vector(packetBytes) ETV
attr interpolationmode none
attr title "packet popped, vector(packetBytes)"
vector 459 scenario.client4.ppp[0].ppp.queue queueingTime:vector ETV
attr interpolationmode none
attr source queueingTime(packetPopped)
attr title "queueing times, vector"
attr unit s
vector 460 scenario.client4.ppp[0].ppp txPk:vector(packetBytes) ETV
attr interpolationmode none
attr source packetSentToLower
attr title "packets transmitted, vector(packetBytes)"
vector 461 scenario.client0.ppp[3].ppp rxPkOk:vector(packetBytes) ETV
attr interpolationmode none
attr source rxPkOk
attr title "packets received OK, vector(packetBytes)"
vector 462 scenario.client0.ppp[3].ppp passedUpPk:vector(packetBytes) ETV
attr interpolationmode none
attr source packetSentToUpper
attr title "packets passed to higher layer, vector(packetBytes)"
vector 463 scenario.client0.tcp.conn-49 rcvSeq:vector ETV
attr interpolationmode sample-hold
vector 464 scenario.client0.tcp.conn-49 rcvAck:vector ETV
attr interpolationmode sample-hold
vector 465 scenario.client0.tcp.conn-49 sndWnd:vector ETV
attr interpolationmode sample-hold
vector 466 scenario.client0.tcp.conn-49 unacked:vector ETV
attr interpolationmode sample-hold
vector 467 scenario.client4.tcp.conn-50 rcvSeq:vector ETV
attr interpolationmode sample-hold
vector 468 scenario.client4.tcp.conn-50 rcvAck:vector ETV
attr interpolationmode sample-hold
vector 469 scenario.client4.tcp.conn-50 unacked:vector ETV
attr interpolationmode sample-hold
vector 470 scenario.client4.tcp.conn-50 cwnd:vector ETV
attr interpolationmode sample-hold
vector 471 scenario.client4.tcp.conn-50 ssthresh:vector ETV
attr interpolationmode sample-hold
vector 472 scenario.client4.tcp.conn-50 dupAcks:vector ETV
attr interpolationmode sample-hold
vector 473 scenario.client0.tcp.conn-49 rtt:vector ETV
attr interpolationmode sample-hold
vector 474 scenario.client0.tcp.conn-49 srtt:vector ETV
attr interpolationmode sample-hold
vector 475 scenario.client0.tcp.conn-49 rttvar:vector ETV
attr interpolationmode sample-hold
vector 476 scenario.client0.tcp.conn-49 rto:vector ETV
attr interpolationmode sample-hold
vector 477 scenario.client0.tcp.conn-49 cwnd:vector ETV
attr interpolationmode sample-hold
vector 478 scenario.client0.tcp.conn-49 ssthresh:vector ETV
attr interpolationmode sample-hold
vector 479 scenario.client0.tcp.conn-49 dupAcks:vector ETV
attr interpolationmode sample-hold
vector 480 scenario.client1.tcp.conn-51 tcpRcvQueueBytes:vector ETV
attr interpolationmode sample-hold
vector 481 scenario.client1.tcp.conn-51 rcvAdv:vector ETV
attr interpolationmode sample-hold
vector 482 scenario.client1.tcp.conn-51 rcvWnd:vector ETV
attr interpolationmode sample-hold
vector 483 scenario.client1.tcp.conn-51 sndAck:vector ETV
attr interpolationmode sample-hold
vector 484 scenario.client3.tcp.conn-52 tcpRcvQueueBytes:vector ETV
attr interpolationmode sample-hold
vector 485 scenario.client3.tcp.conn-52 rcvAdv:vector ETV
attr interpolationmode sample-hold
vector 486 scenario.client3.tcp.conn-52 rcvWnd:vector ETV
attr interpolationmode sample-hold
vector 487 scenario.client3.tcp.conn-52 sndAck:vector ETV
attr interpolationmode sample-hold
vector 488 scenario.client1.ppp[3].ppp rcvdPkFromHl:vector(packetBytes) ETV
attr interpolationmode none
attr source packetReceivedFromUpper
attr title "packets received from higher layer, vector(packetBytes)"
vector 489 scenario.client1.ppp[3].ppp.queue packetPushed:vector(packetBytes) ETV
attr interpolationmode none
attr title "packet pushed, vector(packetBytes)"
vector 490 scenario.client1.ppp[3].ppp.queue queueLength:vector ETV
attr interpolationmode sample-hold
attr source "count(packetPushed) - count(packetPopped) - count(packetRemoved) - count(packetDropped)"
attr title "queue length, vector"
vector 491 scenario.client1.ppp[3].ppp.queue packetPopped:vector(packetBytes) ETV
attr interpolationmode none
attr title "packet popped, vector(packetBytes)"
vector 492 scenario.client1.ppp[3].ppp.queue queueingTime:vector ETV
attr interpolationmode none
attr source queueingTime(packetPopped)
attr title "queueing times, vector"
attr unit s
vector 493 scenario.client1.ppp[3].ppp txPk:vector(packetBytes) ETV
attr interpolationmode none
attr source packetSentToLower
attr title "packets transmitted, vector(packetBytes)"
vector 494 scenario.client3.ppp[3].ppp rcvdPkFromHl:vector(packetBytes) ETV
attr interpolationmode none
attr source packetReceivedFromUpper
attr title "packets received from higher layer, vector(packetBytes)"
vector 495 scenario.client3.ppp[3].ppp.queue packetPushed:vector(packetBytes) ETV
attr interpolationmode none
attr title "packet pushed, vector(packetBytes)"
vector 496 scenario.client3.ppp[3].ppp.queue queueLength:vector ETV
attr interpolationmode sample-hold
attr source "count(packetPushed) - count(packetPopped) - count(packetRemoved) - count(packetDropped)"
attr title "queue length, vector"
vector 497 scenario.client3.ppp[3].ppp.queue packetPopped:vector(packetBytes) ETV
attr interpolationmode none
attr title "packet popped, vector(packetBytes)"
vector 498 scenario.client3.ppp[3].ppp.queue queueingTime:vector ETV
attr interpolationmode none
attr source queueingTime(packetPopped)
attr title "queueing times, vector"
attr unit s
vector 499 scenario.client3.ppp[3].ppp txPk:vector(packetBytes) ETV
attr interpolationmode none
attr source packetSentToLower
attr title "packets transmitted, vector(packetBytes)"
vector 500 scenario.client4.ppp[1].ppp rxPkOk:vector(packetBytes) ETV
attr interpolationmode none
attr source rxPkOk
attr title "packets received OK, vector(packetBytes)"
vector 501 scenario.client4.ppp[1].ppp passedUpPk:vector(packetBytes) ETV
attr interpolationmode none
attr source packetSentToUpper
attr title "packets passed to higher layer, vector(packetBytes)"
vector 502 scenario.client4.ppp[3].ppp rxPkOk:vector(packetBytes) ETV
attr interpolationmode none
attr source rxPkOk
attr title "packets received OK, vector(packetBytes)"
vector 503 scenario.client4.ppp[3].ppp passedUpPk:vector(packetBytes) ETV
attr interpolationmode none
attr source packetSentToUpper
attr title "packets passed to higher layer, vector(packetBytes)"
vector 504 scenario.client4.tcp.conn-53 rcvAdv:vector ETV
attr interpolationmode sample-hold
vector 505 scenario.client4.tcp.conn-53 sndWnd:vector ETV
attr interpolationmode sample-hold
vector 506 scenario.client4.tcp.conn-53 tcpRcvQueueBytes:vector ETV
attr interpolationmode sample-hold
vector 507 scenario.client4.tcp.conn-53 rcvWnd:vector ETV
attr interpolationmode sample-hold
vector 508 scenario.client4.tcp.conn-53 sndAck:vector ETV
attr interpolationmode sample-hold
vector 509 scenario.client4.tcp.conn-54 rcvAdv:vector ETV
attr interpolationmode sample-hold
vector 510 scenario.client4.tcp.conn-54 sndWnd:vector ETV
attr interpolationmode sample-hold
vector 511 scenario.client4.tcp.conn-54 tcpRcvQueueBytes:vector ETV
attr interpolationmode sample-hold
vector 512 scenario.client4.tcp.conn-54 rcvWnd:vector ETV
attr interpolationmode sample-hold
vector 513 scenario.client4.tcp.conn-54 sndAck:vector ETV
attr interpolationmode sample-hold
vector 514 scenario.client4.ppp[1].ppp rcvdPkFromHl:vector(packetBytes) ETV
attr interpolationmode none
attr source packetReceivedFromUpper
attr title "packets received from higher layer, vector(packetBytes)"
vector 515 scenario.client4.ppp[1].ppp.queue packetPushed:vector(packetBytes) ETV
attr interpolationmode none
attr title "packet pushed, vector(packetBytes)"
vector 516 scenario.client4.ppp[1].ppp.queue queueLength:vector ETV
attr interpolationmode sample-hold
attr source "count(packetPushed) - count(packetPopped) - count(packetRemoved) - count(packetDropped)"
attr title "queue length, vector"
vector 517 scenario.client4.ppp[1].ppp.queue packetPopped:vector(packetBytes) ETV
attr interpolationmode none
attr title "packet popped, vector(packetBytes)"
vector 518 scenario.client4.ppp[1].ppp.queue queueingTime:vector ETV
attr interpolationmode none
attr source queueingTime(packetPopped)
attr title "queueing times, vector"
attr unit s
vector 519 scenario.client4.ppp[1].ppp txPk:vector(packetBytes) ETV
attr interpolationmode none
attr source packetSentToLower
attr title "packets transmitted, vector(packetBytes)"
vector 520 scenario.client4.ppp[3].ppp rcvdPkFromHl:vector(packetBytes) ETV
attr interpolationmode none
attr source packetReceivedFromUpper
attr title "packets received from higher layer, vector(packetBytes)"
vector 521 scenario.client4.ppp[3].ppp.queue packetPushed:vector(packetBytes) ETV
attr interpolationmode none
attr title "packet pushed, vector(packetBytes)"
vector 522 scenario.client4.ppp[3].ppp.queue queueLength:vector ETV
attr interpolationmode sample-hold
attr source "count(packetPushed) - count(packetPopped) - count(packetRemoved) - count(packetDropped)"
attr title "queue length, vector"
vector 523 scenario.client4.ppp[3].ppp.queue packetPopped:vector(packetBytes) ETV
attr interpolationmode none
attr title "packet popped, vector(packetBytes)"
vector 524 scenario.client4.ppp[3].ppp.queue queueingTime:vector ETV
attr interpolationmode none
attr source queueingTime(packetPopped)
attr title "queueing times, vector"
attr unit s
vector 525 scenario.client4.ppp[3].ppp txPk:vector(packetBytes) ETV
attr interpolationmode none
attr source packetSentToLower
attr title "packets transmitted, vector(packetBytes)"
vector 526 scenario.client1.ppp[3].ppp rxPkOk:vector(packetBytes) ETV
attr interpolationmode none
attr source rxPkOk
attr title "packets received OK, vector(packetBytes)"
vector 527 scenario.client1.ppp[3].ppp passedUpPk:vector(packetBytes) ETV
attr interpolationmode none
attr source packetSentToUpper
attr title "packets passed to higher layer, vector(packetBytes)"
vector 528 scenario.client3.ppp[3].ppp rxPkOk:vector(packetBytes) ETV
attr interpolationmode none
attr source rxPkOk
attr title "packets received OK, vector(packetBytes)"
vector 529 scenario.client3.ppp[3].ppp passedUpPk:vector(packetBytes) ETV
attr interpolationmode none
attr source packetSentToUpper
attr title "packets passed to higher layer, vector(packetBytes)"
vector 530 scenario.client1.tcp.conn-51 rcvSeq:vector ETV
attr interpolationmode sample-hold
vector 531 scenario.client1.tcp.conn-51 rcvAck:vector ETV
attr interpolationmode sample-hold
vector 532 scenario.client1.tcp.conn-51 sndWnd:vector ETV
attr interpolationmode sample-hold
vector 533 scenario.client1.tcp.conn-51 unacked:vector ETV
attr interpolationmode sample-hold
vector 534 scenario.client3.tcp.conn-52 rcvSeq:vector ETV
attr interpolationmode sample-hold
vector 535 scenario.client3.tcp.conn-52 rcvAck:vector ETV
attr interpolationmode sample-hold
vector 536 scenario.client3.tcp.conn-52 sndWnd:vector ETV
attr interpolationmode sample-hold
vector 537 scenario.client3.tcp.conn-52 unacked:vector ETV
attr interpolationmode sample-hold
vector 538 scenario.client4.tcp.conn-53 rcvSeq:vector ETV
attr interpolationmode sample-hold
vector 539 scenario.client4.tcp.conn-53 rcvAck:vector ETV
attr interpolationmode sample-hold
vector 540 scenario.client4.tcp.conn-53 unacked:vector ETV
attr interpolationmode sample-hold
vector 541 scenario.client4.tcp.conn-53 cwnd:vector ETV
attr interpolationmode sample-hold
vector 542 scenario.client4.tcp.conn-53 ssthresh:vector ETV
attr interpolationmode sample-hold
vector 543 scenario.client4.tcp.conn-53 dupAcks:vector ETV
attr interpolationmode sample-hold
vector 544 scenario.client4.tcp.conn-54 rcvSeq:vector ETV
attr interpolationmode sample-hold
vector 545 scenario.client4.tcp.conn-54 rcvAck:vector ETV
attr interpolationmode sample-hold
vector 546 scenario.client4.tcp.conn-54 unacked:vector ETV
attr interpolationmode sample-hold
vector 547 scenario.client4.tcp.conn-54 cwnd:vector ETV
attr interpolationmode sample-hold
vector 548 scenario.client4.tcp.conn-54 ssthresh:vector ETV
attr interpolationmode sample-hold
vector 549 scenario.client4.tcp.conn-54 dupAcks:vector ETV
attr interpolationmode sample-hold
vector 550 scenario.client1.tcp.conn-51 rtt:vector ETV
attr interpolationmode sample-hold
vector 551 scenario.client1.tcp.conn-51 srtt:vector ETV
attr interpolationmode sample-hold
vector 552 scenario.client1.tcp.conn-51 rttvar:vector ETV
attr interpolationmode sample-hold
vector 553 scenario.client1.tcp.conn-51 rto:vector ETV
attr interpolationmode sample-hold
vector 554 scenario.client1.tcp.conn-51 cwnd:vector ETV
attr interpolationmode sample-hold
vector 555 scenario.client1.tcp.conn-51 ssthresh:vector ETV
attr interpolationmode sample-hold
vector 556 scenario.client1.tcp.conn-51 dupAcks:vector ETV
attr interpolationmode sample-hold
vector 557 scenario.client3.tcp.conn-52 rtt:vector ETV
attr interpolationmode sample-hold
vector 558 scenario.client3.tcp.conn-52 srtt:vector ETV
attr interpolationmode sample-hold
vector 559 scenario.client3.tcp.conn-52 rttvar:vector ETV
attr interpolationmode sample-hold
vector 560 scenario.client3.tcp.conn-52 rto:vector ETV
attr interpolationmode sample-hold
vector 561 scenario.client3.tcp.conn-52 cwnd:vector ETV
attr interpolationmode sample-hold
vector 562 scenario.client3.tcp.conn-52 ssthresh:vector ETV
attr interpolationmode sample-hold
vector 563 scenario.client3.tcp.conn-52 dupAcks:vector ETV
attr interpolationmode sample-hold
0	71005 1239 0 2221 0 4.313780443372 51 0 1 25 25
1	72244 1179 0 2121 0 3.936888702781 49 0 1 24 24
2	73423 1233 0 2246 0 4.638294569293 51 0 1 25 25
3	74656 109 0 1326 0 2.868745464401 5 0 1 2 2
4	74765 1241 0 2228 0 4.314656443372 51 0 1 25 25
5	76006 1031 0 1811 0 3.4780123943 43 0 1 21 21
6	77037 1043 0 2261 0 4.689107887571 43 0 1 21 21
7	78080 109 0 1574 0 3.168805523118 5 0 1 2 2
8	78189 1179 0 2128 0 3.937764702781 49 0 1 24 24
9	79368 1031 0 1818 0 3.4788883943 43 0 1 21 21
10	80399 1026 0 2041 0 3.763495272562 41 0 1 20 20
11	81425 10 0 0 0 0 1 0 0 0 0
12	81435 1285 0 2253 0 4.639170569293 51 0 1 25 25
13	82720 1086 0 2268 0 4.689983887571 43 0 1 21 21
14	83806 1026 0 2048 0 3.764371272562 41 0 1 20 20
15	84832 114 0 1575 0 3.168805523118 5 0 1 2 2
16	84946 114 0 1336 0 2.869621464401 5 0 1 2 2
17	85060 114 0 1594 0 3.169681523118 5 0 1 2 2
18	85174 10 0 0 0 0 1 0 0 0 0
19	85184 114 0 1595 0 3.169681523118 5 0 1 2 2
20	85298 305 23 1948 0.657209997864 3.682713814753 12 0 0 0 0
21	85603 392 23 1948 0.657209997864 3.682713814753 13 7504 172034 2071912 355204675888
22	85995 341 23 1948 0.657209997864 3.682713814753 12 7504 7504 90048 675720192
23	86336 360 23 1948 0.657209997864 3.682713814753 12 0 164530 1809830 297771329900
24	86696 633 26 2127 0.657209997864 3.937388702781 24 40 44 980 40046
25	87329 633 26 2127 0.657209997864 3.937388702781 24 40 44 980 40046
26	87962 1218 26 2127 0.657209997864 3.937388702781 48 0 1 24 24
27	89180 633 26 2127 0.657209997864 3.937388702781 24 40 44 980 40046
28	89813 609 26 2127 0.657209997864 3.937388702781 24 0 0 0 0
29	90422 633 26 2127 0.657209997864 3.937388702781 24 47 51 1148 54942
30	91055 633 28 2129 0.658117997864 3.938264702781 24 47 51 1148 54942
31	91688 633 28 2129 0.658117997864 3.938264702781 24 40 44 980 40046
32	92321 89 30 382 0.658117997864 1.428320852198 3 164302 356853 810551 238089255629
33	92410 74 30 382 0.658117997864 1.428320852198 3 0 0 0 0
34	92484 394 30 1954 0.658117997864 3.683597814753 13 171807 171819 2233562 383753785444
35	92878 54 30 43 0.658117997864 0.659909997864 2 7504 7504 15008 112620032
36	92932 586 30 1954 0.658117997864 3.683597814753 23 0 1 1 1
37	93518 341 30 1954 0.658117997864 3.683597814753 12 7503 7504 90047 675705185
38	93859 365 30 1954 0.658117997864 3.683597814753 12 164303 164315 1971708 323969369954
39	94224 633 32 2120 0.658117997864 3.936504702781 24 40 44 980 40046
40	94857 633 32 2120 0.658117997864 3.936504702781 24 40 44 980 40046
41	95490 1218 32 2120 0.658117997864 3.936504702781 48 0 1 24 24
42	96708 633 32 2120 0.658117997864 3.936504702781 24 40 44 980 40046
43	97341 623 32 2120 0.658117997864 3.936504702781 24 0 0.000376 0.000752 2.82752e-007
44	97964 633 32 2120 0.658117997864 3.936504702781 24 47 51 1148 54942
45	98597 633 34 2122 0.659025997864 3.937388702781 24 47 51 1148 54942
46	99230 633 34 2122 0.659025997864 3.937388702781 24 40 44 980 40046
47	99863 365 36 1961 0.659025997864 3.684473814753 12 164529 164530 1974359 324841121741
48	100228 365 36 1961 0.659025997864 3.684473814753 12 164303 164315 1971708 323969369954
49	100593 341 36 1961 0.659025997864 3.684473814753 12 7503 7504 90047 675705185
50	100934 562 36 1961 0.659025997864 3.684473814753 22 0 2 12 14
51	101496 336 43 1954 0.659909997864 3.683597814753 11 164303 164314 1807393 296969950729
52	101832 336 43 1954 0.659909997864 3.683597814753 11 164530 164530 1809830 297771329900
53	102168 24 43 43 0.659909997864 0.659909997864 1 0 0 0 0
54	102192 27 43 43 0.659909997864 0.659909997864 1 1072 1072 1072 1149184
55	102219 33 43 43 0.659909997864 0.659909997864 1 4294967295 4294967295 4294967295 1.844674406512e+019
56	102252 281 43 1954 0.659909997864 3.683597814753 11 0 0 0 0
57	102533 348 53 1961 0.660785997864 3.684473814753 11 0.00176 0.001768 0.019368 3.4101824e-005
58	102881 408 53 1961 0.660785997864 3.684473814753 11 0.00022 0.001355376522 0.009880364353 1.0282553955498e-005
59	103289 412 53 1961 0.660785997864 3.684473814753 11 0.173280136298 0.65647 4.047882058097 1.7444001966985
60	103701 369 53 1961 0.660785997864 3.684473814753 11 1 2.6261 16.807833749783 29.00258625274
61	104070 314 53 1961 0.660785997864 3.684473814753 11 1072 6432 41272 186455104
62	104384 380 53 1961 0.660785997864 3.684473814753 11 4294967295 4294967295 47244640245 2.0291418471632e+020
63	104764 281 53 1961 0.660785997864 3.684473814753 11 0 0 0 0
64	105045 332 56 2218 0.794241157262 4.313396443372 13 0 0 0 0
65	105377 424 56 2218 0.794241157262 4.313396443372 14 7504 206292 2689300 553289370448
66	105801 371 56 2218 0.794241157262 4.313396443372 13 7504 7504 97552 732030208
67	106172 392 56 2218 0.794241157262 4.313396443372 13 0 198788 2385456 474200027328
68	106564 665 59 2220 0.794241157262 4.313396443372 25 40 44 1021 41727
69	107229 665 59 2220 0.794241157262 4.313396443372 25 40 44 1021 41727
70	107894 1280 59 2220 0.794241157262 4.313396443372 50 0 1 25 25
71	109174 665 59 2220 0.794241157262 4.313396443372 25 40 44 1021 41727
72	109839 640 59 2220 0.794241157262 4.313396443372 25 0 0 0 0
73	110479 665 59 2220 0.794241157262 4.313396443372 25 47 51 1196 57246
74	111144 665 61 2222 0.795149157262 4.314280443372 25 47 51 1196 57246
75	111809 665 61 2222 0.795149157262 4.314280443372 25 40 44 1021 41727
76	112474 89 63 429 0.795149157262 1.527780674581 3 198560 381718 797293 232230215349
77	112563 74 63 429 0.795149157262 1.527780674581 3 0 0 0 0
78	112637 426 63 2224 0.795149157262 4.314280443372 14 206065 206078 2884995 594514010993
79	113063 54 63 76 0.795149157262 0.796941157262 2 7504 7504 15008 112620032
80	113117 640 63 2224 0.795149157262 4.314280443372 25 0 1 1 1
81	113757 371 63 2224 0.795149157262 4.314280443372 13 7503 7504 97551 732015201
82	114128 397 63 2224 0.795149157262 4.314280443372 13 198561 198574 2581379 512578272659
83	114525 666 65 2227 0.795149157262 4.314280443372 25 40 44 1020 41646
84	115191 666 65 2227 0.795149157262 4.314280443372 25 40 44 1020 41646
85	115857 1282 65 2227 0.795149157262 4.314280443372 50 0 1 25 25
86	117139 666 65 2227 0.795149157262 4.314280443372 25 40 44 1020 41646
87	117805 641 65 2227 0.795149157262 4.314280443372 25 0 0 0 0
88	118446 666 65 2227 0.795149157262 4.314280443372 25 47 51 1195 57151
89	119112 666 67 2229 0.796057157262 4.315156443372 25 47 51 1195 57151
90	119778 666 67 2229 0.796057157262 4.315156443372 25 40 44 1020 41646
91	120444 398 69 2231 0.796057157262 4.315156443372 13 198787 198788 2584243 513716298697
92	120842 398 69 2231 0.796057157262 4.315156443372 13 198561 198574 2581379 512578272659
93	121240 372 69 2231 0.796057157262 4.315156443372 13 7503 7504 97551 732015201
94	121612 617 69 2231 0.796057157262 4.315156443372 24 0 2 13 15
95	122229 368 76 2224 0.796941157262 4.314280443372 12 198561 198573 2382805 473146639183
96	122597 368 76 2224 0.796941157262 4.314280443372 12 198788 198788 2385456 474200027328
97	122965 24 76 76 0.796941157262 0.796941157262 1 0 0 0 0
98	122989 27 76 76 0.796941157262 0.796941157262 1 1072 1072 1072 1149184
99	123016 33 76 76 0.796941157262 0.796941157262 1 4294967295 4294967295 4294967295 1.844674406512e+019
100	123049 320 76 2224 0.796941157262 4.314280443372 12 0 0 0 0
101	123369 394 86 2231 0.797817157262 4.315156443372 12 0.00176 0.001768 0.021128 3.7199424e-005
102	123763 462 86 2231 0.797817157262 4.315156443372 12 0.00022 0.001405898358 0.011286711508 1.2259551511031e-005
103	124225 463 86 2231 0.797817157262 4.315156443372 12 0.151670633082 0.65647 4.199552755292 1.7674044453993
104	124688 410 86 2231 0.797817157262 4.315156443372 12 1 2.6261 17.807835950953 30.0025949014
105	125098 357 86 2231 0.797817157262 4.315156443372 12 1072 6968 48240 235008128
106	125455 429 86 2231 0.797817157262 4.315156443372 12 4294967295 4294967295 51539607540 2.2136092878144e+020
107	125884 321 86 2231 0.797817157262 4.315156443372 12 0 0 0 0
108	126205 265 108 1713 0.868062379833 3.299035113621 10 0 0 0 0
109	126470 344 108 1713 0.868062379833 3.299035113621 11 7504 224747 2254974 505168450106
110	126814 295 108 1713 0.868062379833 3.299035113621 10 7504 7504 75040 563100160
111	127109 310 108 1713 0.868062379833 3.299035113621 10 0 217243 1955187 424750689441
112	127419 574 111 1817 0.868062379833 3.4785123943 21 40 44 858 35084
113	127993 574 111 1817 0.868062379833 3.4785123943 21 40 44 858 35084
114	128567 1106 111 1817 0.868062379833 3.4785123943 42 0 1 21 21
115	129673 574 111 1817 0.868062379833 3.4785123943 21 40 44 858 35084
116	130247 560 111 1817 0.868062379833 3.4785123943 21 0 0.000376 0.000376 1.41376e-007
117	130807 574 111 1817 0.868062379833 3.4785123943 21 47 51 1005 48125
118	131381 574 113 1819 0.868970379833 3.4793883943 21 47 51 1005 48125
119	131955 574 113 1819 0.868970379833 3.4793883943 21 40 44 858 35084
120	132529 346 115 1719 0.868970379833 3.299919113621 11 224520 224530 2469767 554522639615
121	132875 58 115 128 0.868970379833 0.870762379833 2 7504 7504 15008 112620032
122	132933 504 115 1719 0.868970379833 3.299919113621 19 0 1 1 1
123	133437 295 115 1719 0.868970379833 3.299919113621 10 7503 7504 75039 563085153
124	133732 315 115 1719 0.868970379833 3.299919113621 10 217016 217026 2170208 470980276432
125	134047 574 117 1810 0.868970379833 3.4776283943 21 40 44 859 35165
126	134621 574 117 1810 0.868970379833 3.4776283943 21 40 44 859 35165
127	135195 1106 117 1810 0.868970379833 3.4776283943 42 0 1 21 21
128	136301 574 117 1810 0.868970379833 3.4776283943 21 40 44 859 35165
129	136875 553 117 1810 0.868970379833 3.4776283943 21 0 0 0 0
130	137428 574 117 1810 0.868970379833 3.4776283943 21 47 51 1006 48220
131	138002 574 119 1812 0.869878379833 3.4785123943 21 47 51 1006 48220
132	138576 574 119 1812 0.869878379833 3.4785123943 21 40 44 859 35165
133	139150 315 121 1726 0.869878379833 3.300795113621 10 217242 217243 2172429 471944776005
134	139465 315 121 1726 0.869878379833 3.300795113621 10 217016 217026 2170208 470980276432
135	139780 295 121 1726 0.869878379833 3.300795113621 10 7503 7504 75039 563085153
136	140075 478 121 1726 0.869878379833 3.300795113621 18 0 2 10 12
137	140553 284 128 1719 0.870762379833 3.299919113621 9 217016 217025 1953182 423879991756
138	140837 284 128 1719 0.870762379833 3.299919113621 9 217243 217243 1955187 424750689441
139	141121 26 128 128 0.870762379833 0.870762379833 1 0 0 0 0
140	141147 29 128 128 0.870762379833 0.870762379833 1 1072 1072 1072 1149184
[...]
318	204854 354 375 2168 1.427412852198 4.062931036104 12 7504 7504 90048 675720192
319	205208 373 375 2168 1.427412852198 4.062931036104 12 0 357081 3927891 1402575246171
320	205581 687 378 2252 1.427412852198 4.638794569293 25 40 44 1020 41646
321	206268 687 378 2252 1.427412852198 4.638794569293 25 40 44 1020 41646
322	206955 1324 378 2252 1.427412852198 4.638794569293 50 0 1 25 25
323	208279 687 378 2252 1.427412852198 4.638794569293 25 40 44 1020 41646
324	208966 662 378 2252 1.427412852198 4.638794569293 25 0 0 0 0
325	209628 687 378 2252 1.427412852198 4.638794569293 25 47 51 1195 57151
326	210315 688 380 2254 1.428320852198 4.639670569293 25 47 51 1195 57151
327	211003 688 380 2254 1.428320852198 4.639670569293 25 40 44 1020 41646
328	211691 409 382 2174 1.428320852198 4.063815036104 13 364358 364370 4736726 1725890246308
329	212100 58 382 395 1.428320852198 1.430112852198 2 7504 7504 15008 112620032
330	212158 610 382 2174 1.428320852198 4.063815036104 23 0 1 1 1
331	212768 354 382 2174 1.428320852198 4.063815036104 12 7503 7504 90047 675705185
332	213122 378 382 2174 1.428320852198 4.063815036104 12 356854 356866 4282321 1528189429101
333	213500 687 384 2245 1.428320852198 4.637910569293 25 40 44 1021 41727
334	214187 687 384 2245 1.428320852198 4.637910569293 25 40 44 1021 41727
335	214874 1324 384 2245 1.428320852198 4.637910569293 50 0 1 25 25
336	216198 687 384 2245 1.428320852198 4.637910569293 25 40 44 1021 41727
337	216885 662 384 2245 1.428320852198 4.637910569293 25 0 0 0 0
338	217547 687 384 2245 1.428320852198 4.637910569293 25 47 51 1196 57246
339	218234 687 386 2247 1.429228852198 4.638794569293 25 47 51 1196 57246
340	218921 687 386 2247 1.429228852198 4.638794569293 25 40 44 1021 41727
341	219608 378 388 2181 1.429228852198 4.064691036104 12 357080 357081 4284971 1530081372571
342	219986 378 388 2181 1.429228852198 4.064691036104 12 356854 356866 4282321 1528189429101
343	220364 354 388 2181 1.429228852198 4.064691036104 12 7503 7504 90047 675705185
344	220718 584 388 2181 1.429228852198 4.064691036104 22 0 2 12 14
345	221302 347 395 2174 1.430112852198 4.063815036104 11 356854 356865 3925455 1400836087145
346	221649 347 395 2174 1.430112852198 4.063815036104 11 357081 357081 3927891 1402575246171
347	221996 26 395 395 1.430112852198 1.430112852198 1 0 0 0 0
348	222022 29 395 395 1.430112852198 1.430112852198 1 1072 1072 1072 1149184
349	222051 35 395 395 1.430112852198 1.430112852198 1 4294967295 4294967295 4294967295 1.844674406512e+019
350	222086 292 395 2174 1.430112852198 4.063815036104 11 0 0 0 0
351	222378 359 405 2181 1.430988852198 4.064691036104 11 0.00176 0.001768 0.019368 3.4101824e-005
352	222737 420 405 2181 1.430988852198 4.064691036104 11 0.00022 0.001355312409 0.00988081315 1.0283001318004e-005
353	223157 421 405 2181 1.430988852198 4.064691036104 11 0.173280053866 0.65647 4.04788212221 1.7444004644598
354	223578 381 405 2181 1.430988852198 4.064691036104 11 1 2.6261 16.807835950953 29.0025949014
355	223959 325 405 2181 1.430988852198 4.064691036104 11 1072 6432 41272 186455104
356	224284 391 405 2181 1.430988852198 4.064691036104 11 4294967295 4294967295 47244640245 2.0291418471632e+020
357	224675 292 405 2181 1.430988852198 4.064691036104 11 0 0 0 0
358	224967 265 422 2183 1.526872674581 4.071020514664 10 0 0 0 0
359	225232 344 422 2183 1.526872674581 4.071020514664 11 7504 389450 3902004 1516769335016
360	225576 295 422 2183 1.526872674581 4.071020514664 10 7504 7504 75040 563100160
361	225871 310 422 2183 1.526872674581 4.071020514664 10 0 381946 3437514 1312944722244
362	226181 346 429 2189 1.527780674581 4.071904514664 11 389223 389233 4281503 1666478903687
363	226527 58 429 442 1.527780674581 1.529572674581 2 7504 7504 15008 112620032
364	226585 504 429 2189 1.527780674581 4.071904514664 19 0 1 1 1
365	227089 295 429 2189 1.527780674581 4.071904514664 10 7503 7504 75039 563085153
366	227384 315 429 2189 1.527780674581 4.071904514664 10 381719 381729 3817241 1457132885317
367	227699 315 435 2196 1.528688674581 4.072780514664 10 381945 381946 3819459 1458826705269
368	228014 315 435 2196 1.528688674581 4.072780514664 10 381719 381729 3817241 1457132885317
369	228329 295 435 2196 1.528688674581 4.072780514664 10 7503 7504 75039 563085153
370	228624 478 435 2196 1.528688674581 4.072780514664 18 0 2 10 12
371	229102 284 442 2189 1.529572674581 4.071904514664 9 381719 381728 3435512 1311415855876
372	229386 284 442 2189 1.529572674581 4.071904514664 9 381946 381946 3437514 1312944722244
373	229670 26 442 442 1.529572674581 1.529572674581 1 0 0 0 0
374	229696 29 442 442 1.529572674581 1.529572674581 1 1072 1072 1072 1149184
375	229725 35 442 442 1.529572674581 1.529572674581 1 4294967295 4294967295 4294967295 1.844674406512e+019
376	229760 239 442 2189 1.529572674581 4.071904514664 9 0 0 0 0
377	229999 294 452 2196 1.530448674581 4.072780514664 9 0.00176 0.001768 0.015848 2.7906624e-005
378	230293 341 452 2196 1.530448674581 4.072780514664 9 0.00022 0.00123135518 0.007228513755 6.7630755428892e-006
379	230634 344 452 2196 1.530448674581 4.072780514664 9 0.226173843196 0.65647 3.676633939056 1.6751833877039
380	230978 327 452 2196 1.530448674581 4.072780514664 9 1 2.6261 14.807837542015 27.002603518551
381	231305 266 452 2196 1.530448674581 4.072780514664 9 1072 5360 28944 110321664
382	231571 320 452 2196 1.530448674581 4.072780514664 9 4294967295 4294967295 38654705655 1.6602069658608e+020
383	231891 239 452 2196 1.530448674581 4.072780514664 9 0 0 0 0
384	232130 344 454 2243 1.591720328379 4.637910569293 13 0 0 0 0
385	232474 438 454 2243 1.591720328379 4.637910569293 14 7504 405662 5281110 2139357867188
386	232912 383 454 2243 1.591720328379 4.637910569293 13 7504 7504 97552 732030208
387	233295 404 454 2243 1.591720328379 4.637910569293 13 0 398158 4777896 1902357515568
388	233699 440 461 2249 1.592628328379 4.638794569293 14 405435 405448 5676173 2301352852129
389	234139 58 461 474 1.592628328379 1.594420328379 2 7504 7504 15008 112620032
390	234197 662 461 2249 1.592628328379 4.638794569293 25 0 1 1 1
391	234859 383 461 2249 1.592628328379 4.638794569293 13 7503 7504 97551 732015201
392	235242 409 461 2249 1.592628328379 4.638794569293 13 397931 397944 5173187 2058604903071
393	235651 410 467 2256 1.593536328379 4.639670569293 13 398157 398158 5176053 2060886512217
394	236061 410 467 2256 1.593536328379 4.639670569293 13 397931 397944 5173187 2058604903071
395	236471 384 467 2256 1.593536328379 4.639670569293 13 7503 7504 97551 732015201
396	236855 637 467 2256 1.593536328379 4.639670569293 24 0 2 13 15
397	237492 378 474 2249 1.594420328379 4.638794569293 12 397931 397943 4775243 1900245475935
398	237870 378 474 2249 1.594420328379 4.638794569293 12 398158 398158 4777896 1902357515568
399	238248 26 474 474 1.594420328379 1.594420328379 1 0 0 0 0
400	238274 29 474 474 1.594420328379 1.594420328379 1 1072 1072 1072 1149184
401	238303 35 474 474 1.594420328379 1.594420328379 1 4294967295 4294967295 4294967295 1.844674406512e+019
402	238338 318 474 2249 1.594420328379 4.638794569293 12 0 0 0 0
403	238656 392 484 2256 1.595296328379 4.639670569293 12 0.00176 0.001768 0.021128 3.7199424e-005
404	239048 459 484 2256 1.595296328379 4.639670569293 12 0.00022 0.001406018571 0.011285870015 1.2258672958128e-005
405	239507 463 484 2256 1.595296328379 4.639670569293 12 0.151670779627 0.65647 4.199552691179 1.7674039627164
406	239970 407 484 2256 1.595296328379 4.639670569293 12 1 2.6261 17.807830796658 30.002577319225
407	240377 355 484 2256 1.595296328379 4.639670569293 12 1072 6968 48240 235008128
408	240732 427 484 2256 1.595296328379 4.639670569293 12 4294967295 4294967295 51539607540 2.2136092878144e+020
409	241159 319 484 2256 1.595296328379 4.639670569293 12 0 0 0 0
410	241478 264 536 1967 1.787599441511 3.694035144994 10 0 0 0 0
411	241742 343 536 1967 1.787599441511 3.694035144994 11 7504 454631 4553814 2066949771626
412	242085 294 536 1967 1.787599441511 3.694035144994 10 7504 7504 75040 563100160
413	242379 309 536 1967 1.787599441511 3.694035144994 10 0 447127 4024143 1799302987161
414	242688 345 543 1980 1.788507441511 3.694919144994 11 454404 454414 4998493 2271357479327
415	243033 58 543 556 1.788507441511 1.790299441511 2 7504 7504 15008 112620032
416	243091 502 543 1980 1.788507441511 3.694919144994 19 0 1 1 1
417	243593 294 543 1980 1.788507441511 3.694919144994 10 7503 7504 75039 563085153
418	243887 314 543 1980 1.788507441511 3.694919144994 10 446900 446910 4469050 1997240790360
419	244201 314 549 1991 1.789415441511 3.695795144994 10 447126 447127 4471269 1999224647037
420	244515 314 549 1991 1.789415441511 3.695795144994 10 446900 446910 4469050 1997240790360
421	244829 294 549 1991 1.789415441511 3.695795144994 10 7503 7504 75039 563085153
422	245123 476 549 1991 1.789415441511 3.695795144994 18 0 2 10 12
423	245599 283 556 1980 1.790299441511 3.694919144994 9 446900 446909 4022140 1797512242260
424	245882 283 556 1980 1.790299441511 3.694919144994 9 447127 447127 4024143 1799302987161
425	246165 26 556 556 1.790299441511 1.790299441511 1 0 0 0 0
426	246191 29 556 556 1.790299441511 1.790299441511 1 1072 1072 1072 1149184
427	246220 35 556 556 1.790299441511 1.790299441511 1 4294967295 4294967295 4294967295 1.844674406512e+019
428	246255 238 556 1980 1.790299441511 3.694919144994 9 0 0 0 0
429	246493 293 566 1991 1.791175441511 3.695795144994 9 0.00176 0.002144 0.016224 2.9377536e-005
430	246786 339 566 1991 1.791175441511 3.695795144994 9 0.00022 0.001258978989 0.007411147085 7.1477354238024e-006
431	247125 343 566 1991 1.791175441511 3.695795144994 9 0.226185755245 0.65647 3.676771545198 1.6752728675173
432	247468 326 566 1991 1.791175441511 3.695795144994 9 1 2.6261 14.808495327908 27.004353795943
433	247794 265 566 1991 1.791175441511 3.695795144994 9 1072 5360 28944 110321664
434	248059 319 566 1991 1.791175441511 3.695795144994 9 4294967295 4294967295 38654705655 1.6602069658608e+020
435	248378 238 566 1991 1.791175441511 3.695795144994 9 0 0 0 0
436	248616 54 1278 1319 2.866545464401 2.868361464401 2 0 0 0 0
437	248670 94 1278 1319 2.866545464401 2.868361464401 3 7504 724368 1456240 1049474308864
438	248764 60 1278 1319 2.866545464401 2.868361464401 2 7504 7504 15008 112620032
439	248824 59 1278 1319 2.866545464401 2.868361464401 2 0 716864 716864 513893994496
440	248883 56 1283 1322 2.866545464401 2.868361464401 2 41 44 85 3617
441	248939 56 1283 1322 2.866545464401 2.868361464401 2 41 44 85 3617
442	248995 108 1283 1322 2.866545464401 2.868361464401 4 0 1 2 2
443	249103 56 1283 1322 2.866545464401 2.868361464401 2 41 44 85 3617
444	249159 54 1283 1322 2.866545464401 2.868361464401 2 0 0 0 0
445	249213 56 1283 1322 2.866545464401 2.868361464401 2 48 51 99 4905
446	249269 56 1301 1327 2.867453464401 2.869245464401 2 48 51 99 4905
447	249325 56 1301 1327 2.867453464401 2.869245464401 2 41 44 85 3617
448	249381 96 1303 1544 2.867453464401 3.167513523118 3 716636 791651 2299938 1766989768098
449	249477 81 1303 1544 2.867453464401 3.167513523118 3 0 0 0 0
450	249558 96 1303 1329 2.867453464401 2.869245464401 3 724141 724141 2172423 1573140563643
451	249654 60 1303 1329 2.867453464401 2.869245464401 2 7504 7504 15008 112620032
452	249714 81 1303 1329 2.867453464401 2.869245464401 3 0 1 1 1
453	249795 60 1303 1329 2.867453464401 2.869245464401 2 7503 7504 15007 112605025
454	249855 64 1303 1329 2.867453464401 2.869245464401 2 716637 716638 1433275 1027138612813
455	249919 56 1305 1333 2.867453464401 2.869245464401 2 40 44 84 3536
456	249975 56 1305 1333 2.867453464401 2.869245464401 2 40 44 84 3536
457	250031 108 1305 1333 2.867453464401 2.869245464401 4 0 1 2 2
458	250139 56 1305 1333 2.867453464401 2.869245464401 2 40 44 84 3536
459	250195 54 1305 1333 2.867453464401 2.869245464401 2 0 0 0 0
460	250249 56 1305 1333 2.867453464401 2.869245464401 2 47 51 98 4810
461	250305 56 1317 1337 2.868361464401 2.870121464401 2 47 51 98 4810
462	250361 56 1317 1337 2.868361464401 2.870121464401 2 40 44 84 3536
463	250417 64 1319 1339 2.868361464401 2.870121464401 2 716863 716864 1433727 1027786555265
464	250481 64 1319 1339 2.868361464401 2.870121464401 2 716637 716638 1433275 1027138612813
465	250545 60 1319 1339 2.868361464401 2.870121464401 2 7503 7504 15007 112605025
466	250605 54 1319 1339 2.868361464401 2.870121464401 2 0 1 1 1
467	250659 32 1329 1329 2.869245464401 2.869245464401 1 716637 716637 716637 513568589769
468	250691 32 1329 1329 2.869245464401 2.869245464401 1 716864 716864 716864 513893994496
469	250723 27 1329 1329 2.869245464401 2.869245464401 1 0 0 0 0
470	250750 30 1329 1329 2.869245464401 2.869245464401 1 1072 1072 1072 1149184
471	250780 36 1329 1329 2.869245464401 2.869245464401 1 4294967295 4294967295 4294967295 1.844674406512e+019
472	250816 27 1329 1329 2.869245464401 2.869245464401 1 0 0 0 0
473	250843 33 1339 1339 2.870121464401 2.870121464401 1 0.00176 0.00176 0.00176 3.0976e-006
474	250876 33 1339 1339 2.870121464401 2.870121464401 1 0.00022 0.00022 0.00022 4.84e-008
475	250909 33 1339 1339 2.870121464401 2.870121464401 1 0.65647 0.65647 0.65647 0.4309528609
476	250942 32 1339 1339 2.870121464401 2.870121464401 1 2.6261 2.6261 2.6261 6.89640121
477	250974 30 1339 1339 2.870121464401 2.870121464401 1 1072 1072 1072 1149184
478	251004 36 1339 1339 2.870121464401 2.870121464401 1 4294967295 4294967295 4294967295 1.844674406512e+019
479	251040 27 1339 1339 2.870121464401 2.870121464401 1 0 0 0 0
480	251067 54 1494 1566 3.166605523118 3.168421523118 2 0 0 0 0
481	251121 94 1494 1566 3.166605523118 3.168421523118 3 7504 799383 1606270 1278082671394
482	251215 60 1494 1566 3.166605523118 3.168421523118 2 7504 7504 15008 112620032
483	251275 59 1494 1566 3.166605523118 3.168421523118 2 0 791879 791879 627072350641
484	251334 54 1497 1567 3.166605523118 3.168421523118 2 0 0 0 0
485	251388 94 1497 1567 3.166605523118 3.168421523118 3 7504 799383 1606270 1278082671394
486	251482 60 1497 1567 3.166605523118 3.168421523118 2 7504 7504 15008 112620032
487	251542 59 1497 1567 3.166605523118 3.168421523118 2 0 791879 791879 627072350641
488	251601 56 1504 1572 3.166605523118 3.168421523118 2 41 44 85 3617
489	251657 56 1504 1572 3.166605523118 3.168421523118 2 41 44 85 3617
490	251713 108 1504 1572 3.166605523118 3.168421523118 4 0 1 2 2
491	251821 56 1504 1572 3.166605523118 3.168421523118 2 41 44 85 3617
492	251877 54 1504 1572 3.166605523118 3.168421523118 2 0 0 0 0
493	251931 56 1504 1572 3.166605523118 3.168421523118 2 48 51 99 4905
494	251987 56 1506 1573 3.166605523118 3.168421523118 2 41 44 85 3617
495	252043 56 1506 1573 3.166605523118 3.168421523118 2 41 44 85 3617
496	252099 108 1506 1573 3.166605523118 3.168421523118 4 0 1 2 2
497	252207 56 1506 1573 3.166605523118 3.168421523118 2 41 44 85 3617
498	252263 54 1506 1573 3.166605523118 3.168421523118 2 0 0 0 0
499	252317 56 1506 1573 3.166605523118 3.168421523118 2 48 51 99 4905
500	252373 56 1539 1576 3.167513523118 3.169305523118 2 48 51 99 4905
501	252429 56 1539 1576 3.167513523118 3.169305523118 2 41 44 85 3617
502	252485 56 1540 1577 3.167513523118 3.169305523118 2 48 51 99 4905
503	252541 56 1540 1577 3.167513523118 3.169305523118 2 41 44 85 3617
504	252597 96 1543 1580 3.167513523118 3.169305523118 3 799156 799156 2397468 1915950937008
505	252693 60 1543 1580 3.167513523118 3.169305523118 2 7504 7504 15008 112620032
506	252753 81 1543 1580 3.167513523118 3.169305523118 3 0 1 1 1
507	252834 60 1543 1580 3.167513523118 3.169305523118 2 7503 7504 15007 112605025
508	252894 64 1543 1580 3.167513523118 3.169305523118 2 791652 791653 1583305 1253427361513
509	252958 96 1544 1581 3.167513523118 3.169305523118 3 799156 799156 2397468 1915950937008
510	253054 60 1544 1581 3.167513523118 3.169305523118 2 7504 7504 15008 112620032
511	253114 81 1544 1581 3.167513523118 3.169305523118 3 0 1 1 1
512	253195 60 1544 1581 3.167513523118 3.169305523118 2 7503 7504 15007 112605025
513	253255 64 1544 1581 3.167513523118 3.169305523118 2 791652 791653 1583305 1253427361513
514	253319 56 1547 1587 3.167513523118 3.169305523118 2 40 44 84 3536
515	253375 56 1547 1587 3.167513523118 3.169305523118 2 40 44 84 3536
516	253431 108 1547 1587 3.167513523118 3.169305523118 4 0 1 2 2
517	253539 56 1547 1587 3.167513523118 3.169305523118 2 40 44 84 3536
518	253595 54 1547 1587 3.167513523118 3.169305523118 2 0 0 0 0
519	253649 56 1547 1587 3.167513523118 3.169305523118 2 47 51 98 4810
520	253705 56 1548 1589 3.167513523118 3.169305523118 2 40 44 84 3536
521	253761 56 1548 1589 3.167513523118 3.169305523118 2 40 44 84 3536
522	253817 108 1548 1589 3.167513523118 3.169305523118 4 0 1 2 2
523	253925 56 1548 1589 3.167513523118 3.169305523118 2 40 44 84 3536
524	253981 54 1548 1589 3.167513523118 3.169305523118 2 0 0 0 0
525	254035 56 1548 1589 3.167513523118 3.169305523118 2 47 51 98 4810
526	254091 56 1562 1596 3.168421523118 3.170181523118 2 47 51 98 4810
527	254147 56 1562 1596 3.168421523118 3.170181523118 2 40 44 84 3536
528	254203 56 1563 1597 3.168421523118 3.170181523118 2 47 51 98 4810
529	254259 56 1563 1597 3.168421523118 3.170181523118 2 40 44 84 3536
530	254315 64 1566 1600 3.168421523118 3.170181523118 2 791878 791879 1583757 1254143117525
531	254379 64 1566 1600 3.168421523118 3.170181523118 2 791652 791653 1583305 1253427361513
532	254443 60 1566 1600 3.168421523118 3.170181523118 2 7503 7504 15007 112605025
533	254503 54 1566 1600 3.168421523118 3.170181523118 2 0 1 1 1
534	254557 64 1567 1601 3.168421523118 3.170181523118 2 791878 791879 1583757 1254143117525
535	254621 64 1567 1601 3.168421523118 3.170181523118 2 791652 791653 1583305 1253427361513
536	254685 60 1567 1601 3.168421523118 3.170181523118 2 7503 7504 15007 112605025
537	254745 54 1567 1601 3.168421523118 3.170181523118 2 0 1 1 1
538	254799 32 1580 1580 3.169305523118 3.169305523118 1 791652 791652 791652 626712889104
539	254831 32 1580 1580 3.169305523118 3.169305523118 1 791879 791879 791879 627072350641
540	254863 27 1580 1580 3.169305523118 3.169305523118 1 0 0 0 0
541	254890 30 1580 1580 3.169305523118 3.169305523118 1 1072 1072 1072 1149184
542	254920 36 1580 1580 3.169305523118 3.169305523118 1 4294967295 4294967295 4294967295 1.844674406512e+019
543	254956 27 1580 1580 3.169305523118 3.169305523118 1 0 0 0 0
544	254983 32 1581 1581 3.169305523118 3.169305523118 1 791652 791652 791652 626712889104
545	255015 32 1581 1581 3.169305523118 3.169305523118 1 791879 791879 791879 627072350641
546	255047 27 1581 1581 3.169305523118 3.169305523118 1 0 0 0 0
547	255074 30 1581 1581 3.169305523118 3.169305523118 1 1072 1072 1072 1149184
548	255104 36 1581 1581 3.169305523118 3.169305523118 1 4294967295 4294967295 4294967295 1.844674406512e+019
549	255140 27 1581 1581 3.169305523118 3.169305523118 1 0 0 0 0
550	255167 33 1600 1600 3.170181523118 3.170181523118 1 0.00176 0.00176 0.00176 3.0976e-006
551	255200 33 1600 1600 3.170181523118 3.170181523118 1 0.00022 0.00022 0.00022 4.84e-008
552	255233 33 1600 1600 3.170181523118 3.170181523118 1 0.65647 0.65647 0.65647 0.4309528609
553	255266 32 1600 1600 3.170181523118 3.170181523118 1 2.6261 2.6261 2.6261 6.89640121
554	255298 30 1600 1600 3.170181523118 3.170181523118 1 1072 1072 1072 1149184
555	255328 36 1600 1600 3.170181523118 3.170181523118 1 4294967295 4294967295 4294967295 1.844674406512e+019
556	255364 27 1600 1600 3.170181523118 3.170181523118 1 0 0 0 0
557	255391 33 1601 1601 3.170181523118 3.170181523118 1 0.00176 0.00176 0.00176 3.0976e-006
558	255424 33 1601 1601 3.170181523118 3.170181523118 1 0.00022 0.00022 0.00022 4.84e-008
559	255457 33 1601 1601 3.170181523118 3.170181523118 1 0.65647 0.65647 0.65647 0.4309528609
560	255490 32 1601 1601 3.170181523118 3.170181523118 1 2.6261 2.6261 2.6261 6.89640121
561	255522 30 1601 1601 3.170181523118 3.170181523118 1 1072 1072 1072 1149184
562	255552 36 1601 1601 3.170181523118 3.170181523118 1 4294967295 4294967295 4294967295 1.844674406512e+019
563	255588 27 1601 1601 3.170181523118 3.170181523118 1 0 0 0 0

