file 326524 1641829619                                          
version 2
run BROADCAST5-0-20220110-16:46:56-5664
attr configname BROADCAST5
attr datetime 20220110-16:46:56
attr experiment BROADCAST5
attr inifile omnetpp.ini
attr iterationvars ""
attr iterationvarsf ""
attr measurement ""
attr network scenario
attr processid 5664
attr repetition 0
attr replication #0
attr resultdir results
attr runnumber 0
attr seedset 0
param **.client3.app[0].join 0.35
param **.client4.app[0].join 0.40
param **.client*.app[*].timer 0.2
param **.ppp[*].ppp.queue.typename "\"DropTailQueue\""
param **.tcp.typename "\"Tcp\""
param **.tcp.nagleEnabled false
param **.cli*.app[*].nPar 5
param **.cli*.app[*].fPar 0
param **.numApps 1
param **.client0.app[*].typename "\"Node\""
param **.client0.app[0].localPort 1000
param **.client0.app[0].localPortL 1234
param **.client0.app[0].connectAddress "\"\""
param **.client0.app[0].connectPort 1234
param **.client1.app[*].typename "\"Node\""
param **.client1.app[0].localPort 1001
param **.client1.app[0].localPortL 1234
param **.client1.app[0].connectAddress "\"\""
param **.client1.app[0].connectPort 1234
param **.client2.app[*].typename "\"Node\""
param **.client2.app[0].localPort 1002
param **.client2.app[0].localPortL 1234
param **.client2.app[0].connectAddress "\"\""
param **.client2.app[0].connectPort 1234
param **.client3.app[*].typename "\"Node\""
param **.client3.app[0].localPort 1003
param **.client3.app[0].localPortL 1234
param **.client3.app[0].connectAddress "\"\""
param **.client3.app[0].connectPort 1234
param **.client4.app[*].typename "\"Node\""
param **.client4.app[0].localPort 1004
param **.client4.app[0].localPortL 1234
param **.client4.app[0].connectAddress "\"\""
param **.client4.app[0].connectPort 1234
param *.configurator.dumpAddresses true
param *.configurator.dumpTopology true
param *.configurator.dumpLinks true
param *.configurator.dumpRoutes true

vector 0 scenario.client0.ppp[0].ppp transmissionState:vector ETV
attr interpolationmode sample-hold
attr source transmissionStateChanged
attr title "tx state, vector"
vector 1 scenario.client0.ppp[1].ppp transmissionState:vector ETV
attr interpolationmode sample-hold
attr source transmissionStateChanged
attr title "tx state, vector"
vector 2 scenario.client0.ppp[2].ppp transmissionState:vector ETV
attr interpolationmode sample-hold
attr source transmissionStateChanged
attr title "tx state, vector"
vector 3 scenario.client0.ppp[3].ppp transmissionState:vector ETV
attr interpolationmode sample-hold
attr source transmissionStateChanged
attr title "tx state, vector"
vector 4 scenario.client1.ppp[0].ppp transmissionState:vector ETV
attr interpolationmode sample-hold
attr source transmissionStateChanged
attr title "tx state, vector"
vector 5 scenario.client1.ppp[1].ppp transmissionState:vector ETV
attr interpolationmode sample-hold
attr source transmissionStateChanged
attr title "tx state, vector"
vector 6 scenario.client1.ppp[2].ppp transmissionState:vector ETV
attr interpolationmode sample-hold
attr source transmissionStateChanged
attr title "tx state, vector"
vector 7 scenario.client1.ppp[3].ppp transmissionState:vector ETV
attr interpolationmode sample-hold
attr source transmissionStateChanged
attr title "tx state, vector"
vector 8 scenario.client2.ppp[0].ppp transmissionState:vector ETV
attr interpolationmode sample-hold
attr source transmissionStateChanged
attr title "tx state, vector"
vector 9 scenario.client2.ppp[1].ppp transmissionState:vector ETV
attr interpolationmode sample-hold
attr source transmissionStateChanged
attr title "tx state, vector"
vector 10 scenario.client2.ppp[2].ppp transmissionState:vector ETV
attr interpolationmode sample-hold
attr source transmissionStateChanged
attr title "tx state, vector"
vector 11 scenario.client2.ppp[3].ppp transmissionState:vector ETV
attr interpolationmode sample-hold
attr source transmissionStateChanged
attr title "tx state, vector"
vector 12 scenario.client3.ppp[0].ppp transmissionState:vector ETV
attr interpolationmode sample-hold
attr source transmissionStateChanged
attr title "tx state, vector"
vector 13 scenario.client3.ppp[1].ppp transmissionState:vector ETV
attr interpolationmode sample-hold
attr source transmissionStateChanged
attr title "tx state, vector"
vector 14 scenario.client3.ppp[2].ppp transmissionState:vector ETV
attr interpolationmode sample-hold
attr source transmissionStateChanged
attr title "tx state, vector"
vector 15 scenario.client3.ppp[3].ppp transmissionState:vector ETV
attr interpolationmode sample-hold
attr source transmissionStateChanged
attr title "tx state, vector"
vector 16 scenario.client4.ppp[0].ppp transmissionState:vector ETV
attr interpolationmode sample-hold
attr source transmissionStateChanged
attr title "tx state, vector"
vector 17 scenario.client4.ppp[1].ppp transmissionState:vector ETV
attr interpolationmode sample-hold
attr source transmissionStateChanged
attr title "tx state, vector"
vector 18 scenario.client4.ppp[2].ppp transmissionState:vector ETV
attr interpolationmode sample-hold
attr source transmissionStateChanged
attr title "tx state, vector"
vector 19 scenario.client4.ppp[3].ppp transmissionState:vector ETV
attr interpolationmode sample-hold
attr source transmissionStateChanged
attr title "tx state, vector"
vector 20 scenario.client3.tcp.conn-25 tcpRcvQueueBytes:vector ETV
attr interpolationmode sample-hold
vector 21 scenario.client3.tcp.conn-25 rcvAdv:vector ETV
attr interpolationmode sample-hold
vector 22 scenario.client3.tcp.conn-25 rcvWnd:vector ETV
attr interpolationmode sample-hold
vector 23 scenario.client3.tcp.conn-25 sndAck:vector ETV
attr interpolationmode sample-hold
vector 24 scenario.client3.ppp[1].ppp rcvdPkFromHl:vector(packetBytes) ETV
attr interpolationmode none
attr source packetReceivedFromUpper
attr title "packets received from higher layer, vector(packetBytes)"
vector 25 scenario.client3.ppp[1].ppp.queue packetPushed:vector(packetBytes) ETV
attr interpolationmode none
attr title "packet pushed, vector(packetBytes)"
vector 26 scenario.client3.ppp[1].ppp.queue queueLength:vector ETV
attr interpolationmode sample-hold
attr source "count(packetPushed) - count(packetPopped) - count(packetRemoved) - count(packetDropped)"
attr title "queue length, vector"
vector 27 scenario.client3.ppp[1].ppp.queue packetPopped:vector(packetBytes) ETV
attr interpolationmode none
attr title "packet popped, vector(packetBytes)"
vector 28 scenario.client3.ppp[1].ppp.queue queueingTime:vector ETV
attr interpolationmode none
attr source queueingTime(packetPopped)
attr title "queueing times, vector"
attr unit s
vector 29 scenario.client3.ppp[1].ppp txPk:vector(packetBytes) ETV
attr interpolationmode none
attr source packetSentToLower
attr title "packets transmitted, vector(packetBytes)"
vector 30 scenario.client1.ppp[2].ppp rxPkOk:vector(packetBytes) ETV
attr interpolationmode none
attr source rxPkOk
attr title "packets received OK, vector(packetBytes)"
vector 31 scenario.client1.ppp[2].ppp passedUpPk:vector(packetBytes) ETV
attr interpolationmode none
attr source packetSentToUpper
attr title "packets passed to higher layer, vector(packetBytes)"
vector 32 scenario.client1.tcp.conn-1 rcvSeq:vector ETV
attr interpolationmode sample-hold
vector 33 scenario.client1.tcp.conn-1 rcvAck:vector ETV
attr interpolationmode sample-hold
vector 34 scenario.client1.tcp.conn-26 rcvAdv:vector ETV
attr interpolationmode sample-hold
vector 35 scenario.client1.tcp.conn-26 sndWnd:vector ETV
attr interpolationmode sample-hold
vector 36 scenario.client1.tcp.conn-26 tcpRcvQueueBytes:vector ETV
attr interpolationmode sample-hold
vector 37 scenario.client1.tcp.conn-26 rcvWnd:vector ETV
attr interpolationmode sample-hold
vector 38 scenario.client1.tcp.conn-26 sndAck:vector ETV
attr interpolationmode sample-hold
vector 39 scenario.client1.ppp[2].ppp rcvdPkFromHl:vector(packetBytes) ETV
attr interpolationmode none
attr source packetReceivedFromUpper
attr title "packets received from higher layer, vector(packetBytes)"
vector 40 scenario.client1.ppp[2].ppp.queue packetPushed:vector(packetBytes) ETV
attr interpolationmode none
attr title "packet pushed, vector(packetBytes)"
vector 41 scenario.client1.ppp[2].ppp.queue queueLength:vector ETV
attr interpolationmode sample-hold
attr source "count(packetPushed) - count(packetPopped) - count(packetRemoved) - count(packetDropped)"
attr title "queue length, vector"
vector 42 scenario.client1.ppp[2].ppp.queue packetPopped:vector(packetBytes) ETV
attr interpolationmode none
attr title "packet popped, vector(packetBytes)"
vector 43 scenario.client1.ppp[2].ppp.queue queueingTime:vector ETV
attr interpolationmode none
attr source queueingTime(packetPopped)
attr title "queueing times, vector"
attr unit s
vector 44 scenario.client1.ppp[2].ppp txPk:vector(packetBytes) ETV
attr interpolationmode none
attr source packetSentToLower
attr title "packets transmitted, vector(packetBytes)"
vector 45 scenario.client3.ppp[1].ppp rxPkOk:vector(packetBytes) ETV
attr interpolationmode none
attr source rxPkOk
attr title "packets received OK, vector(packetBytes)"
vector 46 scenario.client3.ppp[1].ppp passedUpPk:vector(packetBytes) ETV
attr interpolationmode none
attr source packetSentToUpper
attr title "packets passed to higher layer, vector(packetBytes)"
vector 47 scenario.client3.tcp.conn-25 rcvSeq:vector ETV
attr interpolationmode sample-hold
vector 48 scenario.client3.tcp.conn-25 rcvAck:vector ETV
attr interpolationmode sample-hold
vector 49 scenario.client3.tcp.conn-25 sndWnd:vector ETV
attr interpolationmode sample-hold
vector 50 scenario.client3.tcp.conn-25 unacked:vector ETV
attr interpolationmode sample-hold
vector 51 scenario.client1.tcp.conn-26 rcvSeq:vector ETV
attr interpolationmode sample-hold
vector 52 scenario.client1.tcp.conn-26 rcvAck:vector ETV
attr interpolationmode sample-hold
vector 53 scenario.client1.tcp.conn-26 unacked:vector ETV
attr interpolationmode sample-hold
vector 54 scenario.client1.tcp.conn-26 cwnd:vector ETV
attr interpolationmode sample-hold
vector 55 scenario.client1.tcp.conn-26 ssthresh:vector ETV
attr interpolationmode sample-hold
vector 56 scenario.client1.tcp.conn-26 dupAcks:vector ETV
attr interpolationmode sample-hold
vector 57 scenario.client3.tcp.conn-25 rtt:vector ETV
attr interpolationmode sample-hold
vector 58 scenario.client3.tcp.conn-25 srtt:vector ETV
attr interpolationmode sample-hold
vector 59 scenario.client3.tcp.conn-25 rttvar:vector ETV
attr interpolationmode sample-hold
vector 60 scenario.client3.tcp.conn-25 rto:vector ETV
attr interpolationmode sample-hold
vector 61 scenario.client3.tcp.conn-25 cwnd:vector ETV
attr interpolationmode sample-hold
vector 62 scenario.client3.tcp.conn-25 ssthresh:vector ETV
attr interpolationmode sample-hold
vector 63 scenario.client3.tcp.conn-25 dupAcks:vector ETV
attr interpolationmode sample-hold
vector 64 scenario.client1.tcp.conn-27 tcpRcvQueueBytes:vector ETV
attr interpolationmode sample-hold
vector 65 scenario.client1.tcp.conn-27 rcvAdv:vector ETV
attr interpolationmode sample-hold
vector 66 scenario.client1.tcp.conn-27 rcvWnd:vector ETV
attr interpolationmode sample-hold
vector 67 scenario.client1.tcp.conn-27 sndAck:vector ETV
attr interpolationmode sample-hold
vector 68 scenario.client1.ppp[0].ppp rcvdPkFromHl:vector(packetBytes) ETV
attr interpolationmode none
attr source packetReceivedFromUpper
attr title "packets received from higher layer, vector(packetBytes)"
vector 69 scenario.client1.ppp[0].ppp.queue packetPushed:vector(packetBytes) ETV
attr interpolationmode none
attr title "packet pushed, vector(packetBytes)"
vector 70 scenario.client1.ppp[0].ppp.queue queueLength:vector ETV
attr interpolationmode sample-hold
attr source "count(packetPushed) - count(packetPopped) - count(packetRemoved) - count(packetDropped)"
attr title "queue length, vector"
vector 71 scenario.client1.ppp[0].ppp.queue packetPopped:vector(packetBytes) ETV
attr interpolationmode none
attr title "packet popped, vector(packetBytes)"
vector 72 scenario.client1.ppp[0].ppp.queue queueingTime:vector ETV
attr interpolationmode none
attr source queueingTime(packetPopped)
attr title "queueing times, vector"
attr unit s
vector 73 scenario.client1.ppp[0].ppp txPk:vector(packetBytes) ETV
attr interpolationmode none
attr source packetSentToLower
attr title "packets transmitted, vector(packetBytes)"
vector 74 scenario.client0.ppp[0].ppp rxPkOk:vector(packetBytes) ETV
attr interpolationmode none
attr source rxPkOk
attr title "packets received OK, vector(packetBytes)"
vector 75 scenario.client0.ppp[0].ppp passedUpPk:vector(packetBytes) ETV
attr interpolationmode none
attr source packetSentToUpper
attr title "packets passed to higher layer, vector(packetBytes)"
vector 76 scenario.client0.tcp.conn-0 rcvSeq:vector ETV
attr interpolationmode sample-hold
vector 77 scenario.client0.tcp.conn-0 rcvAck:vector ETV
attr interpolationmode sample-hold
vector 78 scenario.client0.tcp.conn-28 rcvAdv:vector ETV
attr interpolationmode sample-hold
vector 79 scenario.client0.tcp.conn-28 sndWnd:vector ETV
attr interpolationmode sample-hold
vector 80 scenario.client0.tcp.conn-28 tcpRcvQueueBytes:vector ETV
attr interpolationmode sample-hold
vector 81 scenario.client0.tcp.conn-28 rcvWnd:vector ETV
attr interpolationmode sample-hold
vector 82 scenario.client0.tcp.conn-28 sndAck:vector ETV
attr interpolationmode sample-hold
vector 83 scenario.client0.ppp[0].ppp rcvdPkFromHl:vector(packetBytes) ETV
attr interpolationmode none
attr source packetReceivedFromUpper
attr title "packets received from higher layer, vector(packetBytes)"
vector 84 scenario.client0.ppp[0].ppp.queue packetPushed:vector(packetBytes) ETV
attr interpolationmode none
attr title "packet pushed, vector(packetBytes)"
vector 85 scenario.client0.ppp[0].ppp.queue queueLength:vector ETV
attr interpolationmode sample-hold
attr source "count(packetPushed) - count(packetPopped) - count(packetRemoved) - count(packetDropped)"
attr title "queue length, vector"
vector 86 scenario.client0.ppp[0].ppp.queue packetPopped:vector(packetBytes) ETV
attr interpolationmode none
attr title "packet popped, vector(packetBytes)"
vector 87 scenario.client0.ppp[0].ppp.queue queueingTime:vector ETV
attr interpolationmode none
attr source queueingTime(packetPopped)
attr title "queueing times, vector"
attr unit s
vector 88 scenario.client0.ppp[0].ppp txPk:vector(packetBytes) ETV
attr interpolationmode none
attr source packetSentToLower
attr title "packets transmitted, vector(packetBytes)"
vector 89 scenario.client1.ppp[0].ppp rxPkOk:vector(packetBytes) ETV
attr interpolationmode none
attr source rxPkOk
attr title "packets received OK, vector(packetBytes)"
vector 90 scenario.client1.ppp[0].ppp passedUpPk:vector(packetBytes) ETV
attr interpolationmode none
attr source packetSentToUpper
attr title "packets passed to higher layer, vector(packetBytes)"
vector 91 scenario.client1.tcp.conn-27 rcvSeq:vector ETV
attr interpolationmode sample-hold
vector 92 scenario.client1.tcp.conn-27 rcvAck:vector ETV
attr interpolationmode sample-hold
vector 93 scenario.client1.tcp.conn-27 sndWnd:vector ETV
attr interpolationmode sample-hold
vector 94 scenario.client1.tcp.conn-27 unacked:vector ETV
attr interpolationmode sample-hold
vector 95 scenario.client0.tcp.conn-28 rcvSeq:vector ETV
attr interpolationmode sample-hold
vector 96 scenario.client0.tcp.conn-28 rcvAck:vector ETV
attr interpolationmode sample-hold
vector 97 scenario.client0.tcp.conn-28 unacked:vector ETV
attr interpolationmode sample-hold
vector 98 scenario.client0.tcp.conn-28 cwnd:vector ETV
attr interpolationmode sample-hold
vector 99 scenario.client0.tcp.conn-28 ssthresh:vector ETV
attr interpolationmode sample-hold
vector 100 scenario.client0.tcp.conn-28 dupAcks:vector ETV
attr interpolationmode sample-hold
vector 101 scenario.client3.tcp.conn-29 tcpRcvQueueBytes:vector ETV
attr interpolationmode sample-hold
vector 102 scenario.client3.tcp.conn-29 rcvAdv:vector ETV
attr interpolationmode sample-hold
vector 103 scenario.client3.tcp.conn-29 rcvWnd:vector ETV
attr interpolationmode sample-hold
vector 104 scenario.client3.tcp.conn-29 sndAck:vector ETV
attr interpolationmode sample-hold
vector 105 scenario.client3.ppp[2].ppp rcvdPkFromHl:vector(packetBytes) ETV
attr interpolationmode none
attr source packetReceivedFromUpper
attr title "packets received from higher layer, vector(packetBytes)"
vector 106 scenario.client3.ppp[2].ppp.queue packetPushed:vector(packetBytes) ETV
attr interpolationmode none
attr title "packet pushed, vector(packetBytes)"
vector 107 scenario.client3.ppp[2].ppp.queue queueLength:vector ETV
attr interpolationmode sample-hold
attr source "count(packetPushed) - count(packetPopped) - count(packetRemoved) - count(packetDropped)"
attr title "queue length, vector"
vector 108 scenario.client3.ppp[2].ppp.queue packetPopped:vector(packetBytes) ETV
attr interpolationmode none
attr title "packet popped, vector(packetBytes)"
vector 109 scenario.client3.ppp[2].ppp.queue queueingTime:vector ETV
attr interpolationmode none
attr source queueingTime(packetPopped)
attr title "queueing times, vector"
attr unit s
vector 110 scenario.client3.ppp[2].ppp txPk:vector(packetBytes) ETV
attr interpolationmode none
attr source packetSentToLower
attr title "packets transmitted, vector(packetBytes)"
vector 111 scenario.client1.tcp.conn-27 rtt:vector ETV
attr interpolationmode sample-hold
vector 112 scenario.client1.tcp.conn-27 srtt:vector ETV
attr interpolationmode sample-hold
vector 113 scenario.client1.tcp.conn-27 rttvar:vector ETV
attr interpolationmode sample-hold
vector 114 scenario.client1.tcp.conn-27 rto:vector ETV
attr interpolationmode sample-hold
vector 115 scenario.client1.tcp.conn-27 cwnd:vector ETV
attr interpolationmode sample-hold
vector 116 scenario.client1.tcp.conn-27 ssthresh:vector ETV
attr interpolationmode sample-hold
vector 117 scenario.client1.tcp.conn-27 dupAcks:vector ETV
attr interpolationmode sample-hold
vector 118 scenario.client2.ppp[2].ppp rxPkOk:vector(packetBytes) ETV
attr interpolationmode none
attr source rxPkOk
attr title "packets received OK, vector(packetBytes)"
vector 119 scenario.client2.ppp[2].ppp passedUpPk:vector(packetBytes) ETV
attr interpolationmode none
attr source packetSentToUpper
attr title "packets passed to higher layer, vector(packetBytes)"
vector 120 scenario.client2.tcp.conn-2 rcvSeq:vector ETV
attr interpolationmode sample-hold
vector 121 scenario.client2.tcp.conn-2 rcvAck:vector ETV
attr interpolationmode sample-hold
vector 122 scenario.client2.tcp.conn-30 rcvAdv:vector ETV
attr interpolationmode sample-hold
vector 123 scenario.client2.tcp.conn-30 sndWnd:vector ETV
attr interpolationmode sample-hold
vector 124 scenario.client2.tcp.conn-30 tcpRcvQueueBytes:vector ETV
attr interpolationmode sample-hold
vector 125 scenario.client2.tcp.conn-30 rcvWnd:vector ETV
attr interpolationmode sample-hold
vector 126 scenario.client2.tcp.conn-30 sndAck:vector ETV
attr interpolationmode sample-hold
vector 127 scenario.client2.ppp[2].ppp rcvdPkFromHl:vector(packetBytes) ETV
attr interpolationmode none
attr source packetReceivedFromUpper
attr title "packets received from higher layer, vector(packetBytes)"
vector 128 scenario.client2.ppp[2].ppp.queue packetPushed:vector(packetBytes) ETV
attr interpolationmode none
attr title "packet pushed, vector(packetBytes)"
vector 129 scenario.client2.ppp[2].ppp.queue queueLength:vector ETV
attr interpolationmode sample-hold
attr source "count(packetPushed) - count(packetPopped) - count(packetRemoved) - count(packetDropped)"
attr title "queue length, vector"
vector 130 scenario.client2.ppp[2].ppp.queue packetPopped:vector(packetBytes) ETV
attr interpolationmode none
attr title "packet popped, vector(packetBytes)"
vector 131 scenario.client2.ppp[2].ppp.queue queueingTime:vector ETV
attr interpolationmode none
attr source queueingTime(packetPopped)
attr title "queueing times, vector"
attr unit s
vector 132 scenario.client2.ppp[2].ppp txPk:vector(packetBytes) ETV
attr interpolationmode none
attr source packetSentToLower
attr title "packets transmitted, vector(packetBytes)"
vector 133 scenario.client3.ppp[2].ppp rxPkOk:vector(packetBytes) ETV
attr interpolationmode none
attr source rxPkOk
attr title "packets received OK, vector(packetBytes)"
vector 134 scenario.client3.ppp[2].ppp passedUpPk:vector(packetBytes) ETV
attr interpolationmode none
attr source packetSentToUpper
attr title "packets passed to higher layer, vector(packetBytes)"
vector 135 scenario.client3.tcp.conn-29 rcvSeq:vector ETV
attr interpolationmode sample-hold
vector 136 scenario.client3.tcp.conn-29 rcvAck:vector ETV
attr interpolationmode sample-hold
vector 137 scenario.client3.tcp.conn-29 sndWnd:vector ETV
attr interpolationmode sample-hold
vector 138 scenario.client3.tcp.conn-29 unacked:vector ETV
attr interpolationmode sample-hold
vector 139 scenario.client2.tcp.conn-30 rcvSeq:vector ETV
attr interpolationmode sample-hold
vector 140 scenario.client2.tcp.conn-30 rcvAck:vector ETV
attr interpolationmode sample-hold
vector 141 scenario.client2.tcp.conn-30 unacked:vector ETV
attr interpolationmode sample-hold
vector 142 scenario.client2.tcp.conn-30 cwnd:vector ETV
attr interpolationmode sample-hold
vector 143 scenario.client2.tcp.conn-30 ssthresh:vector ETV
attr interpolationmode sample-hold
vector 144 scenario.client2.tcp.conn-30 dupAcks:vector ETV
attr interpolationmode sample-hold
vector 145 scenario.client3.tcp.conn-29 rtt:vector ETV
attr interpolationmode sample-hold
vector 146 scenario.client3.tcp.conn-29 srtt:vector ETV
attr interpolationmode sample-hold
vector 147 scenario.client3.tcp.conn-29 rttvar:vector ETV
attr interpolationmode sample-hold
vector 148 scenario.client3.tcp.conn-29 rto:vector ETV
attr interpolationmode sample-hold
vector 149 scenario.client3.tcp.conn-29 cwnd:vector ETV
attr interpolationmode sample-hold
vector 150 scenario.client3.tcp.conn-29 ssthresh:vector ETV
attr interpolationmode sample-hold
vector 151 scenario.client3.tcp.conn-29 dupAcks:vector ETV
attr interpolationmode sample-hold
vector 152 scenario.client4.tcp.conn-31 tcpRcvQueueBytes:vector ETV
attr interpolationmode sample-hold
vector 153 scenario.client4.tcp.conn-31 rcvAdv:vector ETV
attr interpolationmode sample-hold
vector 154 scenario.client4.tcp.conn-31 rcvWnd:vector ETV
attr interpolationmode sample-hold
vector 155 scenario.client4.tcp.conn-31 sndAck:vector ETV
attr interpolationmode sample-hold
vector 156 scenario.client4.ppp[2].ppp rcvdPkFromHl:vector(packetBytes) ETV
attr interpolationmode none
attr source packetReceivedFromUpper
attr title "packets received from higher layer, vector(packetBytes)"
vector 157 scenario.client4.ppp[2].ppp.queue packetPushed:vector(packetBytes) ETV
attr interpolationmode none
attr title "packet pushed, vector(packetBytes)"
vector 158 scenario.client4.ppp[2].ppp.queue queueLength:vector ETV
attr interpolationmode sample-hold
attr source "count(packetPushed) - count(packetPopped) - count(packetRemoved) - count(packetDropped)"
attr title "queue length, vector"
vector 159 scenario.client4.ppp[2].ppp.queue packetPopped:vector(packetBytes) ETV
attr interpolationmode none
attr title "packet popped, vector(packetBytes)"
vector 160 scenario.client4.ppp[2].ppp.queue queueingTime:vector ETV
attr interpolationmode none
attr source queueingTime(packetPopped)
attr title "queueing times, vector"
attr unit s
vector 161 scenario.client4.ppp[2].ppp txPk:vector(packetBytes) ETV
attr interpolationmode none
attr source packetSentToLower
attr title "packets transmitted, vector(packetBytes)"
vector 162 scenario.client2.ppp[3].ppp rxPkOk:vector(packetBytes) ETV
attr interpolationmode none
attr source rxPkOk
attr title "packets received OK, vector(packetBytes)"
vector 163 scenario.client2.ppp[3].ppp passedUpPk:vector(packetBytes) ETV
attr interpolationmode none
attr source packetSentToUpper
attr title "packets passed to higher layer, vector(packetBytes)"
vector 164 scenario.client2.tcp.conn-32 rcvAdv:vector ETV
attr interpolationmode sample-hold
vector 165 scenario.client2.tcp.conn-32 sndWnd:vector ETV
attr interpolationmode sample-hold
vector 166 scenario.client2.tcp.conn-32 tcpRcvQueueBytes:vector ETV
attr interpolationmode sample-hold
vector 167 scenario.client2.tcp.conn-32 rcvWnd:vector ETV
attr interpolationmode sample-hold
vector 168 scenario.client2.tcp.conn-32 sndAck:vector ETV
attr interpolationmode sample-hold
vector 169 scenario.client2.ppp[3].ppp rcvdPkFromHl:vector(packetBytes) ETV
attr interpolationmode none
attr source packetReceivedFromUpper
attr title "packets received from higher layer, vector(packetBytes)"
vector 170 scenario.client2.ppp[3].ppp.queue packetPushed:vector(packetBytes) ETV
attr interpolationmode none
attr title "packet pushed, vector(packetBytes)"
vector 171 scenario.client2.ppp[3].ppp.queue queueLength:vector ETV
attr interpolationmode sample-hold
attr source "count(packetPushed) - count(packetPopped) - count(packetRemoved) - count(packetDropped)"
attr title "queue length, vector"
vector 172 scenario.client2.ppp[3].ppp.queue packetPopped:vector(packetBytes) ETV
attr interpolationmode none
attr title "packet popped, vector(packetBytes)"
vector 173 scenario.client2.ppp[3].ppp.queue queueingTime:vector ETV
attr interpolationmode none
attr source queueingTime(packetPopped)
attr title "queueing times, vector"
attr unit s
vector 174 scenario.client2.ppp[3].ppp txPk:vector(packetBytes) ETV
attr interpolationmode none
attr source packetSentToLower
attr title "packets transmitted, vector(packetBytes)"
vector 175 scenario.client4.ppp[2].ppp rxPkOk:vector(packetBytes) ETV
attr interpolationmode none
attr source rxPkOk
attr title "packets received OK, vector(packetBytes)"
vector 176 scenario.client4.ppp[2].ppp passedUpPk:vector(packetBytes) ETV
attr interpolationmode none
attr source packetSentToUpper
attr title "packets passed to higher layer, vector(packetBytes)"
vector 177 scenario.client4.tcp.conn-31 rcvSeq:vector ETV
attr interpolationmode sample-hold
vector 178 scenario.client4.tcp.conn-31 rcvAck:vector ETV
attr interpolationmode sample-hold
vector 179 scenario.client4.tcp.conn-31 sndWnd:vector ETV
attr interpolationmode sample-hold
vector 180 scenario.client4.tcp.conn-31 unacked:vector ETV
attr interpolationmode sample-hold
vector 181 scenario.client2.tcp.conn-32 rcvSeq:vector ETV
attr interpolationmode sample-hold
vector 182 scenario.client2.tcp.conn-32 rcvAck:vector ETV
attr interpolationmode sample-hold
vector 183 scenario.client2.tcp.conn-32 unacked:vector ETV
attr interpolationmode sample-hold
vector 184 scenario.client2.tcp.conn-32 cwnd:vector ETV
attr interpolationmode sample-hold
vector 185 scenario.client2.tcp.conn-32 ssthresh:vector ETV
attr interpolationmode sample-hold
vector 186 scenario.client2.tcp.conn-32 dupAcks:vector ETV
attr interpolationmode sample-hold
vector 187 scenario.client4.tcp.conn-31 rtt:vector ETV
attr interpolationmode sample-hold
vector 188 scenario.client4.tcp.conn-31 srtt:vector ETV
attr interpolationmode sample-hold
vector 189 scenario.client4.tcp.conn-31 rttvar:vector ETV
attr interpolationmode sample-hold
vector 190 scenario.client4.tcp.conn-31 rto:vector ETV
attr interpolationmode sample-hold
vector 191 scenario.client4.tcp.conn-31 cwnd:vector ETV
attr interpolationmode sample-hold
vector 192 scenario.client4.tcp.conn-31 ssthresh:vector ETV
attr interpolationmode sample-hold
vector 193 scenario.client4.tcp.conn-31 dupAcks:vector ETV
attr interpolationmode sample-hold
vector 194 scenario.client2.tcp.conn-33 tcpRcvQueueBytes:vector ETV
attr interpolationmode sample-hold
vector 195 scenario.client2.tcp.conn-33 rcvAdv:vector ETV
attr interpolationmode sample-hold
vector 196 scenario.client2.tcp.conn-33 rcvWnd:vector ETV
attr interpolationmode sample-hold
vector 197 scenario.client2.tcp.conn-33 sndAck:vector ETV
attr interpolationmode sample-hold
vector 198 scenario.client3.tcp.conn-3 rcvSeq:vector ETV
attr interpolationmode sample-hold
vector 199 scenario.client3.tcp.conn-3 rcvAck:vector ETV
attr interpolationmode sample-hold
vector 200 scenario.client3.tcp.conn-34 rcvAdv:vector ETV
attr interpolationmode sample-hold
vector 201 scenario.client3.tcp.conn-34 sndWnd:vector ETV
attr interpolationmode sample-hold
vector 202 scenario.client3.tcp.conn-34 tcpRcvQueueBytes:vector ETV
attr interpolationmode sample-hold
vector 203 scenario.client3.tcp.conn-34 rcvWnd:vector ETV
attr interpolationmode sample-hold
vector 204 scenario.client3.tcp.conn-34 sndAck:vector ETV
attr interpolationmode sample-hold
vector 205 scenario.client2.tcp.conn-33 rcvSeq:vector ETV
attr interpolationmode sample-hold
vector 206 scenario.client2.tcp.conn-33 rcvAck:vector ETV
attr interpolationmode sample-hold
vector 207 scenario.client2.tcp.conn-33 sndWnd:vector ETV
attr interpolationmode sample-hold
vector 208 scenario.client2.tcp.conn-33 unacked:vector ETV
attr interpolationmode sample-hold
vector 209 scenario.client3.tcp.conn-34 rcvSeq:vector ETV
attr interpolationmode sample-hold
vector 210 scenario.client3.tcp.conn-34 rcvAck:vector ETV
attr interpolationmode sample-hold
vector 211 scenario.client3.tcp.conn-34 unacked:vector ETV
attr interpolationmode sample-hold
vector 212 scenario.client3.tcp.conn-34 cwnd:vector ETV
attr interpolationmode sample-hold
vector 213 scenario.client3.tcp.conn-34 ssthresh:vector ETV
attr interpolationmode sample-hold
vector 214 scenario.client3.tcp.conn-34 dupAcks:vector ETV
attr interpolationmode sample-hold
vector 215 scenario.client2.tcp.conn-33 rtt:vector ETV
attr interpolationmode sample-hold
vector 216 scenario.client2.tcp.conn-33 srtt:vector ETV
attr interpolationmode sample-hold
vector 217 scenario.client2.tcp.conn-33 rttvar:vector ETV
attr interpolationmode sample-hold
vector 218 scenario.client2.tcp.conn-33 rto:vector ETV
attr interpolationmode sample-hold
vector 219 scenario.client2.tcp.conn-33 cwnd:vector ETV
attr interpolationmode sample-hold
vector 220 scenario.client2.tcp.conn-33 ssthresh:vector ETV
attr interpolationmode sample-hold
vector 221 scenario.client2.tcp.conn-33 dupAcks:vector ETV
attr interpolationmode sample-hold
vector 222 scenario.client1.tcp.conn-35 tcpRcvQueueBytes:vector ETV
attr interpolationmode sample-hold
vector 223 scenario.client1.tcp.conn-35 rcvAdv:vector ETV
attr interpolationmode sample-hold
vector 224 scenario.client1.tcp.conn-35 rcvWnd:vector ETV
attr interpolationmode sample-hold
vector 225 scenario.client1.tcp.conn-35 sndAck:vector ETV
attr interpolationmode sample-hold
vector 226 scenario.client1.ppp[1].ppp rcvdPkFromHl:vector(packetBytes) ETV
attr interpolationmode none
attr source packetReceivedFromUpper
attr title "packets received from higher layer, vector(packetBytes)"
vector 227 scenario.client1.ppp[1].ppp.queue packetPushed:vector(packetBytes) ETV
attr interpolationmode none
attr title "packet pushed, vector(packetBytes)"
vector 228 scenario.client1.ppp[1].ppp.queue queueLength:vector ETV
attr interpolationmode sample-hold
attr source "count(packetPushed) - count(packetPopped) - count(packetRemoved) - count(packetDropped)"
attr title "queue length, vector"
vector 229 scenario.client1.ppp[1].ppp.queue packetPopped:vector(packetBytes) ETV
attr interpolationmode none
attr title "packet popped, vector(packetBytes)"
vector 230 scenario.client1.ppp[1].ppp.queue queueingTime:vector ETV
attr interpolationmode none
attr source queueingTime(packetPopped)
attr title "queueing times, vector"
attr unit s
vector 231 scenario.client1.ppp[1].ppp txPk:vector(packetBytes) ETV
attr interpolationmode none
attr source packetSentToLower
attr title "packets transmitted, vector(packetBytes)"
vector 232 scenario.client2.ppp[1].ppp rxPkOk:vector(packetBytes) ETV
attr interpolationmode none
attr source rxPkOk
attr title "packets received OK, vector(packetBytes)"
vector 233 scenario.client2.ppp[1].ppp passedUpPk:vector(packetBytes) ETV
attr interpolationmode none
attr source packetSentToUpper
attr title "packets passed to higher layer, vector(packetBytes)"
vector 234 scenario.client2.tcp.conn-36 rcvAdv:vector ETV
attr interpolationmode sample-hold
vector 235 scenario.client2.tcp.conn-36 sndWnd:vector ETV
attr interpolationmode sample-hold
vector 236 scenario.client2.tcp.conn-36 tcpRcvQueueBytes:vector ETV
attr interpolationmode sample-hold
vector 237 scenario.client2.tcp.conn-36 rcvWnd:vector ETV
attr interpolationmode sample-hold
vector 238 scenario.client2.tcp.conn-36 sndAck:vector ETV
attr interpolationmode sample-hold
vector 239 scenario.client2.ppp[1].ppp rcvdPkFromHl:vector(packetBytes) ETV
attr interpolationmode none
attr source packetReceivedFromUpper
attr title "packets received from higher layer, vector(packetBytes)"
vector 240 scenario.client2.ppp[1].ppp.queue packetPushed:vector(packetBytes) ETV
attr interpolationmode none
attr title "packet pushed, vector(packetBytes)"
vector 241 scenario.client2.ppp[1].ppp.queue queueLength:vector ETV
attr interpolationmode sample-hold
attr source "count(packetPushed) - count(packetPopped) - count(packetRemoved) - count(packetDropped)"
attr title "queue length, vector"
vector 242 scenario.client2.ppp[1].ppp.queue packetPopped:vector(packetBytes) ETV
attr interpolationmode none
attr title "packet popped, vector(packetBytes)"
vector 243 scenario.client2.ppp[1].ppp.queue queueingTime:vector ETV
attr interpolationmode none
attr source queueingTime(packetPopped)
attr title "queueing times, vector"
attr unit s
vector 244 scenario.client2.ppp[1].ppp txPk:vector(packetBytes) ETV
attr interpolationmode none
attr source packetSentToLower
attr title "packets transmitted, vector(packetBytes)"
vector 245 scenario.client1.ppp[1].ppp rxPkOk:vector(packetBytes) ETV
attr interpolationmode none
attr source rxPkOk
attr title "packets received OK, vector(packetBytes)"
vector 246 scenario.client1.ppp[1].ppp passedUpPk:vector(packetBytes) ETV
attr interpolationmode none
attr source packetSentToUpper
attr title "packets passed to higher layer, vector(packetBytes)"
vector 247 scenario.client1.tcp.conn-35 rcvSeq:vector ETV
attr interpolationmode sample-hold
vector 248 scenario.client1.tcp.conn-35 rcvAck:vector ETV
attr interpolationmode sample-hold
vector 249 scenario.client1.tcp.conn-35 sndWnd:vector ETV
attr interpolationmode sample-hold
vector 250 scenario.client1.tcp.conn-35 unacked:vector ETV
attr interpolationmode sample-hold
vector 251 scenario.client2.tcp.conn-36 rcvSeq:vector ETV
attr interpolationmode sample-hold
vector 252 scenario.client2.tcp.conn-36 rcvAck:vector ETV
attr interpolationmode sample-hold
vector 253 scenario.client2.tcp.conn-36 unacked:vector ETV
attr interpolationmode sample-hold
vector 254 scenario.client2.tcp.conn-36 cwnd:vector ETV
attr interpolationmode sample-hold
vector 255 scenario.client2.tcp.conn-36 ssthresh:vector ETV
attr interpolationmode sample-hold
vector 256 scenario.client2.tcp.conn-36 dupAcks:vector ETV
attr interpolationmode sample-hold
vector 257 scenario.client1.tcp.conn-35 rtt:vector ETV
attr interpolationmode sample-hold
vector 258 scenario.client1.tcp.conn-35 srtt:vector ETV
attr interpolationmode sample-hold
vector 259 scenario.client1.tcp.conn-35 rttvar:vector ETV
attr interpolationmode sample-hold
vector 260 scenario.client1.tcp.conn-35 rto:vector ETV
attr interpolationmode sample-hold
vector 261 scenario.client1.tcp.conn-35 cwnd:vector ETV
attr interpolationmode sample-hold
vector 262 scenario.client1.tcp.conn-35 ssthresh:vector ETV
attr interpolationmode sample-hold
vector 263 scenario.client1.tcp.conn-35 dupAcks:vector ETV
attr interpolationmode sample-hold
vector 264 scenario.client4.tcp.conn-37 tcpRcvQueueBytes:vector ETV
attr interpolationmode sample-hold
vector 265 scenario.client4.tcp.conn-37 rcvAdv:vector ETV
attr interpolationmode sample-hold
vector 266 scenario.client4.tcp.conn-37 rcvWnd:vector ETV
attr interpolationmode sample-hold
vector 267 scenario.client4.tcp.conn-37 sndAck:vector ETV
attr interpolationmode sample-hold
vector 268 scenario.client4.ppp[1].ppp rcvdPkFromHl:vector(packetBytes) ETV
attr interpolationmode none
attr source packetReceivedFromUpper
attr title "packets received from higher layer, vector(packetBytes)"
vector 269 scenario.client4.ppp[1].ppp.queue packetPushed:vector(packetBytes) ETV
attr interpolationmode none
attr title "packet pushed, vector(packetBytes)"
vector 270 scenario.client4.ppp[1].ppp.queue queueLength:vector ETV
attr interpolationmode sample-hold
attr source "count(packetPushed) - count(packetPopped) - count(packetRemoved) - count(packetDropped)"
attr title "queue length, vector"
vector 271 scenario.client4.ppp[1].ppp.queue packetPopped:vector(packetBytes) ETV
attr interpolationmode none
attr title "packet popped, vector(packetBytes)"
vector 272 scenario.client4.ppp[1].ppp.queue queueingTime:vector ETV
attr interpolationmode none
attr source queueingTime(packetPopped)
attr title "queueing times, vector"
attr unit s
vector 273 scenario.client4.ppp[1].ppp txPk:vector(packetBytes) ETV
attr interpolationmode none
attr source packetSentToLower
attr title "packets transmitted, vector(packetBytes)"
vector 274 scenario.client1.ppp[3].ppp rxPkOk:vector(packetBytes) ETV
attr interpolationmode none
attr source rxPkOk
attr title "packets received OK, vector(packetBytes)"
vector 275 scenario.client1.ppp[3].ppp passedUpPk:vector(packetBytes) ETV
attr interpolationmode none
attr source packetSentToUpper
attr title "packets passed to higher layer, vector(packetBytes)"
vector 276 scenario.client1.tcp.conn-38 rcvAdv:vector ETV
attr interpolationmode sample-hold
vector 277 scenario.client1.tcp.conn-38 sndWnd:vector ETV
attr interpolationmode sample-hold
vector 278 scenario.client1.tcp.conn-38 tcpRcvQueueBytes:vector ETV
attr interpolationmode sample-hold
vector 279 scenario.client1.tcp.conn-38 rcvWnd:vector ETV
attr interpolationmode sample-hold
vector 280 scenario.client1.tcp.conn-38 sndAck:vector ETV
attr interpolationmode sample-hold
vector 281 scenario.client1.ppp[3].ppp rcvdPkFromHl:vector(packetBytes) ETV
attr interpolationmode none
attr source packetReceivedFromUpper
attr title "packets received from higher layer, vector(packetBytes)"
vector 282 scenario.client1.ppp[3].ppp.queue packetPushed:vector(packetBytes) ETV
attr interpolationmode none
attr title "packet pushed, vector(packetBytes)"
vector 283 scenario.client1.ppp[3].ppp.queue queueLength:vector ETV
attr interpolationmode sample-hold
attr source "count(packetPushed) - count(packetPopped) - count(packetRemoved) - count(packetDropped)"
attr title "queue length, vector"
vector 284 scenario.client1.ppp[3].ppp.queue packetPopped:vector(packetBytes) ETV
attr interpolationmode none
attr title "packet popped, vector(packetBytes)"
vector 285 scenario.client1.ppp[3].ppp.queue queueingTime:vector ETV
attr interpolationmode none
attr source queueingTime(packetPopped)
attr title "queueing times, vector"
attr unit s
vector 286 scenario.client1.ppp[3].ppp txPk:vector(packetBytes) ETV
attr interpolationmode none
attr source packetSentToLower
attr title "packets transmitted, vector(packetBytes)"
vector 287 scenario.client4.ppp[1].ppp rxPkOk:vector(packetBytes) ETV
attr interpolationmode none
attr source rxPkOk
attr title "packets received OK, vector(packetBytes)"
vector 288 scenario.client4.ppp[1].ppp passedUpPk:vector(packetBytes) ETV
attr interpolationmode none
attr source packetSentToUpper
attr title "packets passed to higher layer, vector(packetBytes)"
vector 289 scenario.client4.tcp.conn-37 rcvSeq:vector ETV
attr interpolationmode sample-hold
vector 290 scenario.client4.tcp.conn-37 rcvAck:vector ETV
attr interpolationmode sample-hold
vector 291 scenario.client4.tcp.conn-37 sndWnd:vector ETV
attr interpolationmode sample-hold
vector 292 scenario.client4.tcp.conn-37 unacked:vector ETV
attr interpolationmode sample-hold
vector 293 scenario.client1.tcp.conn-38 rcvSeq:vector ETV
attr interpolationmode sample-hold
vector 294 scenario.client1.tcp.conn-38 rcvAck:vector ETV
attr interpolationmode sample-hold
vector 295 scenario.client1.tcp.conn-38 unacked:vector ETV
attr interpolationmode sample-hold
vector 296 scenario.client1.tcp.conn-38 cwnd:vector ETV
attr interpolationmode sample-hold
vector 297 scenario.client1.tcp.conn-38 ssthresh:vector ETV
attr interpolationmode sample-hold
vector 298 scenario.client1.tcp.conn-38 dupAcks:vector ETV
attr interpolationmode sample-hold
vector 299 scenario.client4.tcp.conn-37 rtt:vector ETV
attr interpolationmode sample-hold
vector 300 scenario.client4.tcp.conn-37 srtt:vector ETV
attr interpolationmode sample-hold
vector 301 scenario.client4.tcp.conn-37 rttvar:vector ETV
attr interpolationmode sample-hold
vector 302 scenario.client4.tcp.conn-37 rto:vector ETV
attr interpolationmode sample-hold
vector 303 scenario.client4.tcp.conn-37 cwnd:vector ETV
attr interpolationmode sample-hold
vector 304 scenario.client4.tcp.conn-37 ssthresh:vector ETV
attr interpolationmode sample-hold
vector 305 scenario.client4.tcp.conn-37 dupAcks:vector ETV
attr interpolationmode sample-hold
vector 306 scenario.client2.tcp.conn-39 tcpRcvQueueBytes:vector ETV
attr interpolationmode sample-hold
vector 307 scenario.client2.tcp.conn-39 rcvAdv:vector ETV
attr interpolationmode sample-hold
vector 308 scenario.client2.tcp.conn-39 rcvWnd:vector ETV
attr interpolationmode sample-hold
vector 309 scenario.client2.tcp.conn-39 sndAck:vector ETV
attr interpolationmode sample-hold
vector 310 scenario.client1.tcp.conn-40 rcvAdv:vector ETV
attr interpolationmode sample-hold
vector 311 scenario.client1.tcp.conn-40 sndWnd:vector ETV
attr interpolationmode sample-hold
vector 312 scenario.client1.tcp.conn-40 tcpRcvQueueBytes:vector ETV
attr interpolationmode sample-hold
vector 313 scenario.client1.tcp.conn-40 rcvWnd:vector ETV
attr interpolationmode sample-hold
vector 314 scenario.client1.tcp.conn-40 sndAck:vector ETV
attr interpolationmode sample-hold
vector 315 scenario.client2.tcp.conn-39 rcvSeq:vector ETV
attr interpolationmode sample-hold
vector 316 scenario.client2.tcp.conn-39 rcvAck:vector ETV
attr interpolationmode sample-hold
vector 317 scenario.client2.tcp.conn-39 sndWnd:vector ETV
attr interpolationmode sample-hold
vector 318 scenario.client2.tcp.conn-39 unacked:vector ETV
attr interpolationmode sample-hold
vector 319 scenario.client1.tcp.conn-40 rcvSeq:vector ETV
attr interpolationmode sample-hold
vector 320 scenario.client1.tcp.conn-40 rcvAck:vector ETV
attr interpolationmode sample-hold
vector 321 scenario.client1.tcp.conn-40 unacked:vector ETV
attr interpolationmode sample-hold
vector 322 scenario.client1.tcp.conn-40 cwnd:vector ETV
attr interpolationmode sample-hold
vector 323 scenario.client1.tcp.conn-40 ssthresh:vector ETV
attr interpolationmode sample-hold
vector 324 scenario.client1.tcp.conn-40 dupAcks:vector ETV
attr interpolationmode sample-hold
vector 325 scenario.client2.tcp.conn-39 rtt:vector ETV
attr interpolationmode sample-hold
vector 326 scenario.client2.tcp.conn-39 srtt:vector ETV
attr interpolationmode sample-hold
vector 327 scenario.client2.tcp.conn-39 rttvar:vector ETV
attr interpolationmode sample-hold
vector 328 scenario.client2.tcp.conn-39 rto:vector ETV
attr interpolationmode sample-hold
vector 329 scenario.client2.tcp.conn-39 cwnd:vector ETV
attr interpolationmode sample-hold
vector 330 scenario.client2.tcp.conn-39 ssthresh:vector ETV
attr interpolationmode sample-hold
vector 331 scenario.client2.tcp.conn-39 dupAcks:vector ETV
attr interpolationmode sample-hold
vector 332 scenario.client2.tcp.conn-41 tcpRcvQueueBytes:vector ETV
attr interpolationmode sample-hold
vector 333 scenario.client2.tcp.conn-41 rcvAdv:vector ETV
attr interpolationmode sample-hold
vector 334 scenario.client2.tcp.conn-41 rcvWnd:vector ETV
attr interpolationmode sample-hold
vector 335 scenario.client2.tcp.conn-41 sndAck:vector ETV
attr interpolationmode sample-hold
vector 336 scenario.client2.ppp[0].ppp rcvdPkFromHl:vector(packetBytes) ETV
attr interpolationmode none
attr source packetReceivedFromUpper
attr title "packets received from higher layer, vector(packetBytes)"
vector 337 scenario.client2.ppp[0].ppp.queue packetPushed:vector(packetBytes) ETV
attr interpolationmode none
attr title "packet pushed, vector(packetBytes)"
vector 338 scenario.client2.ppp[0].ppp.queue queueLength:vector ETV
attr interpolationmode sample-hold
attr source "count(packetPushed) - count(packetPopped) - count(packetRemoved) - count(packetDropped)"
attr title "queue length, vector"
vector 339 scenario.client2.ppp[0].ppp.queue packetPopped:vector(packetBytes) ETV
attr interpolationmode none
attr title "packet popped, vector(packetBytes)"
vector 340 scenario.client2.ppp[0].ppp.queue queueingTime:vector ETV
attr interpolationmode none
attr source queueingTime(packetPopped)
attr title "queueing times, vector"
attr unit s
vector 341 scenario.client2.ppp[0].ppp txPk:vector(packetBytes) ETV
attr interpolationmode none
attr source packetSentToLower
attr title "packets transmitted, vector(packetBytes)"
vector 342 scenario.client0.ppp[1].ppp rxPkOk:vector(packetBytes) ETV
attr interpolationmode none
attr source rxPkOk
attr title "packets received OK, vector(packetBytes)"
vector 343 scenario.client0.ppp[1].ppp passedUpPk:vector(packetBytes) ETV
attr interpolationmode none
attr source packetSentToUpper
attr title "packets passed to higher layer, vector(packetBytes)"
vector 344 scenario.client0.tcp.conn-42 rcvAdv:vector ETV
attr interpolationmode sample-hold
vector 345 scenario.client0.tcp.conn-42 sndWnd:vector ETV
attr interpolationmode sample-hold
vector 346 scenario.client0.tcp.conn-42 tcpRcvQueueBytes:vector ETV
attr interpolationmode sample-hold
vector 347 scenario.client0.tcp.conn-42 rcvWnd:vector ETV
attr interpolationmode sample-hold
vector 348 scenario.client0.tcp.conn-42 sndAck:vector ETV
attr interpolationmode sample-hold
vector 349 scenario.client0.ppp[1].ppp rcvdPkFromHl:vector(packetBytes) ETV
attr interpolationmode none
attr source packetReceivedFromUpper
attr title "packets received from higher layer, vector(packetBytes)"
vector 350 scenario.client0.ppp[1].ppp.queue packetPushed:vector(packetBytes) ETV
attr interpolationmode none
attr title "packet pushed, vector(packetBytes)"
vector 351 scenario.client0.ppp[1].ppp.queue queueLength:vector ETV
attr interpolationmode sample-hold
attr source "count(packetPushed) - count(packetPopped) - count(packetRemoved) - count(packetDropped)"
attr title "queue length, vector"
vector 352 scenario.client0.ppp[1].ppp.queue packetPopped:vector(packetBytes) ETV
attr interpolationmode none
attr title "packet popped, vector(packetBytes)"
vector 353 scenario.client0.ppp[1].ppp.queue queueingTime:vector ETV
attr interpolationmode none
attr source queueingTime(packetPopped)
attr title "queueing times, vector"
attr unit s
vector 354 scenario.client0.ppp[1].ppp txPk:vector(packetBytes) ETV
attr interpolationmode none
attr source packetSentToLower
attr title "packets transmitted, vector(packetBytes)"
vector 355 scenario.client2.ppp[0].ppp rxPkOk:vector(packetBytes) ETV
attr interpolationmode none
attr source rxPkOk
attr title "packets received OK, vector(packetBytes)"
vector 356 scenario.client2.ppp[0].ppp passedUpPk:vector(packetBytes) ETV
attr interpolationmode none
attr source packetSentToUpper
attr title "packets passed to higher layer, vector(packetBytes)"
vector 357 scenario.client2.tcp.conn-41 rcvSeq:vector ETV
attr interpolationmode sample-hold
vector 358 scenario.client2.tcp.conn-41 rcvAck:vector ETV
attr interpolationmode sample-hold
vector 359 scenario.client2.tcp.conn-41 sndWnd:vector ETV
attr interpolationmode sample-hold
vector 360 scenario.client2.tcp.conn-41 unacked:vector ETV
attr interpolationmode sample-hold
vector 361 scenario.client0.tcp.conn-42 rcvSeq:vector ETV
attr interpolationmode sample-hold
vector 362 scenario.client0.tcp.conn-42 rcvAck:vector ETV
attr interpolationmode sample-hold
vector 363 scenario.client0.tcp.conn-42 unacked:vector ETV
attr interpolationmode sample-hold
vector 364 scenario.client0.tcp.conn-42 cwnd:vector ETV
attr interpolationmode sample-hold
vector 365 scenario.client0.tcp.conn-42 ssthresh:vector ETV
attr interpolationmode sample-hold
vector 366 scenario.client0.tcp.conn-42 dupAcks:vector ETV
attr interpolationmode sample-hold
vector 367 scenario.client2.tcp.conn-41 rtt:vector ETV
attr interpolationmode sample-hold
vector 368 scenario.client2.tcp.conn-41 srtt:vector ETV
attr interpolationmode sample-hold
vector 369 scenario.client2.tcp.conn-41 rttvar:vector ETV
attr interpolationmode sample-hold
vector 370 scenario.client2.tcp.conn-41 rto:vector ETV
attr interpolationmode sample-hold
vector 371 scenario.client2.tcp.conn-41 cwnd:vector ETV
attr interpolationmode sample-hold
vector 372 scenario.client2.tcp.conn-41 ssthresh:vector ETV
attr interpolationmode sample-hold
vector 373 scenario.client2.tcp.conn-41 dupAcks:vector ETV
attr interpolationmode sample-hold
vector 374 scenario.client3.tcp.conn-43 tcpRcvQueueBytes:vector ETV
attr interpolationmode sample-hold
vector 375 scenario.client3.tcp.conn-43 rcvAdv:vector ETV
attr interpolationmode sample-hold
vector 376 scenario.client3.tcp.conn-43 rcvWnd:vector ETV
attr interpolationmode sample-hold
vector 377 scenario.client3.tcp.conn-43 sndAck:vector ETV
attr interpolationmode sample-hold
vector 378 scenario.client3.ppp[0].ppp rcvdPkFromHl:vector(packetBytes) ETV
attr interpolationmode none
attr source packetReceivedFromUpper
attr title "packets received from higher layer, vector(packetBytes)"
vector 379 scenario.client3.ppp[0].ppp.queue packetPushed:vector(packetBytes) ETV
attr interpolationmode none
attr title "packet pushed, vector(packetBytes)"
vector 380 scenario.client3.ppp[0].ppp.queue queueLength:vector ETV
attr interpolationmode sample-hold
attr source "count(packetPushed) - count(packetPopped) - count(packetRemoved) - count(packetDropped)"
attr title "queue length, vector"
vector 381 scenario.client3.ppp[0].ppp.queue packetPopped:vector(packetBytes) ETV
attr interpolationmode none
attr title "packet popped, vector(packetBytes)"
vector 382 scenario.client3.ppp[0].ppp.queue queueingTime:vector ETV
attr interpolationmode none
attr source queueingTime(packetPopped)
attr title "queueing times, vector"
attr unit s
vector 383 scenario.client3.ppp[0].ppp txPk:vector(packetBytes) ETV
attr interpolationmode none
attr source packetSentToLower
attr title "packets transmitted, vector(packetBytes)"
vector 384 scenario.client0.ppp[2].ppp rxPkOk:vector(packetBytes) ETV
attr interpolationmode none
attr source rxPkOk
attr title "packets received OK, vector(packetBytes)"
vector 385 scenario.client0.ppp[2].ppp passedUpPk:vector(packetBytes) ETV
attr interpolationmode none
attr source packetSentToUpper
attr title "packets passed to higher layer, vector(packetBytes)"
vector 386 scenario.client0.tcp.conn-44 rcvAdv:vector ETV
attr interpolationmode sample-hold
vector 387 scenario.client0.tcp.conn-44 sndWnd:vector ETV
attr interpolationmode sample-hold
vector 388 scenario.client0.tcp.conn-44 tcpRcvQueueBytes:vector ETV
attr interpolationmode sample-hold
vector 389 scenario.client0.tcp.conn-44 rcvWnd:vector ETV
attr interpolationmode sample-hold
vector 390 scenario.client0.tcp.conn-44 sndAck:vector ETV
attr interpolationmode sample-hold
vector 391 scenario.client0.ppp[2].ppp rcvdPkFromHl:vector(packetBytes) ETV
attr interpolationmode none
attr source packetReceivedFromUpper
attr title "packets received from higher layer, vector(packetBytes)"
vector 392 scenario.client0.ppp[2].ppp.queue packetPushed:vector(packetBytes) ETV
attr interpolationmode none
attr title "packet pushed, vector(packetBytes)"
vector 393 scenario.client0.ppp[2].ppp.queue queueLength:vector ETV
attr interpolationmode sample-hold
attr source "count(packetPushed) - count(packetPopped) - count(packetRemoved) - count(packetDropped)"
attr title "queue length, vector"
vector 394 scenario.client0.ppp[2].ppp.queue packetPopped:vector(packetBytes) ETV
attr interpolationmode none
attr title "packet popped, vector(packetBytes)"
vector 395 scenario.client0.ppp[2].ppp.queue queueingTime:vector ETV
attr interpolationmode none
attr source queueingTime(packetPopped)
attr title "queueing times, vector"
attr unit s
vector 396 scenario.client0.ppp[2].ppp txPk:vector(packetBytes) ETV
attr interpolationmode none
attr source packetSentToLower
attr title "packets transmitted, vector(packetBytes)"
vector 397 scenario.client3.ppp[0].ppp rxPkOk:vector(packetBytes) ETV
attr interpolationmode none
attr source rxPkOk
attr title "packets received OK, vector(packetBytes)"
vector 398 scenario.client3.ppp[0].ppp passedUpPk:vector(packetBytes) ETV
attr interpolationmode none
attr source packetSentToUpper
attr title "packets passed to higher layer, vector(packetBytes)"
vector 399 scenario.client3.tcp.conn-43 rcvSeq:vector ETV
attr interpolationmode sample-hold
vector 400 scenario.client3.tcp.conn-43 rcvAck:vector ETV
attr interpolationmode sample-hold
vector 401 scenario.client3.tcp.conn-43 sndWnd:vector ETV
attr interpolationmode sample-hold
vector 402 scenario.client3.tcp.conn-43 unacked:vector ETV
attr interpolationmode sample-hold
vector 403 scenario.client0.tcp.conn-44 rcvSeq:vector ETV
attr interpolationmode sample-hold
vector 404 scenario.client0.tcp.conn-44 rcvAck:vector ETV
attr interpolationmode sample-hold
vector 405 scenario.client0.tcp.conn-44 unacked:vector ETV
attr interpolationmode sample-hold
vector 406 scenario.client0.tcp.conn-44 cwnd:vector ETV
attr interpolationmode sample-hold
vector 407 scenario.client0.tcp.conn-44 ssthresh:vector ETV
attr interpolationmode sample-hold
vector 408 scenario.client0.tcp.conn-44 dupAcks:vector ETV
attr interpolationmode sample-hold
vector 409 scenario.client3.tcp.conn-43 rtt:vector ETV
attr interpolationmode sample-hold
vector 410 scenario.client3.tcp.conn-43 srtt:vector ETV
attr interpolationmode sample-hold
vector 411 scenario.client3.tcp.conn-43 rttvar:vector ETV
attr interpolationmode sample-hold
vector 412 scenario.client3.tcp.conn-43 rto:vector ETV
attr interpolationmode sample-hold
vector 413 scenario.client3.tcp.conn-43 cwnd:vector ETV
attr interpolationmode sample-hold
vector 414 scenario.client3.tcp.conn-43 ssthresh:vector ETV
attr interpolationmode sample-hold
vector 415 scenario.client3.tcp.conn-43 dupAcks:vector ETV
attr interpolationmode sample-hold
vector 416 scenario.client1.tcp.conn-45 tcpRcvQueueBytes:vector ETV
attr interpolationmode sample-hold
vector 417 scenario.client1.tcp.conn-45 rcvAdv:vector ETV
attr interpolationmode sample-hold
vector 418 scenario.client1.tcp.conn-45 rcvWnd:vector ETV
attr interpolationmode sample-hold
vector 419 scenario.client1.tcp.conn-45 sndAck:vector ETV
attr interpolationmode sample-hold
vector 420 scenario.client4.tcp.conn-4 rcvSeq:vector ETV
attr interpolationmode sample-hold
vector 421 scenario.client4.tcp.conn-4 rcvAck:vector ETV
attr interpolationmode sample-hold
vector 422 scenario.client4.tcp.conn-46 rcvAdv:vector ETV
attr interpolationmode sample-hold
vector 423 scenario.client4.tcp.conn-46 sndWnd:vector ETV
attr interpolationmode sample-hold
vector 424 scenario.client4.tcp.conn-46 tcpRcvQueueBytes:vector ETV
attr interpolationmode sample-hold
vector 425 scenario.client4.tcp.conn-46 rcvWnd:vector ETV
attr interpolationmode sample-hold
vector 426 scenario.client4.tcp.conn-46 sndAck:vector ETV
attr interpolationmode sample-hold
vector 427 scenario.client1.tcp.conn-45 rcvSeq:vector ETV
attr interpolationmode sample-hold
vector 428 scenario.client1.tcp.conn-45 rcvAck:vector ETV
attr interpolationmode sample-hold
vector 429 scenario.client1.tcp.conn-45 sndWnd:vector ETV
attr interpolationmode sample-hold
vector 430 scenario.client1.tcp.conn-45 unacked:vector ETV
attr interpolationmode sample-hold
vector 431 scenario.client4.tcp.conn-46 rcvSeq:vector ETV
attr interpolationmode sample-hold
vector 432 scenario.client4.tcp.conn-46 rcvAck:vector ETV
attr interpolationmode sample-hold
vector 433 scenario.client4.tcp.conn-46 unacked:vector ETV
attr interpolationmode sample-hold
vector 434 scenario.client4.tcp.conn-46 cwnd:vector ETV
attr interpolationmode sample-hold
vector 435 scenario.client4.tcp.conn-46 ssthresh:vector ETV
attr interpolationmode sample-hold
vector 436 scenario.client4.tcp.conn-46 dupAcks:vector ETV
attr interpolationmode sample-hold
vector 437 scenario.client1.tcp.conn-45 rtt:vector ETV
attr interpolationmode sample-hold
vector 438 scenario.client1.tcp.conn-45 srtt:vector ETV
attr interpolationmode sample-hold
vector 439 scenario.client1.tcp.conn-45 rttvar:vector ETV
attr interpolationmode sample-hold
vector 440 scenario.client1.tcp.conn-45 rto:vector ETV
attr interpolationmode sample-hold
vector 441 scenario.client1.tcp.conn-45 cwnd:vector ETV
attr interpolationmode sample-hold
vector 442 scenario.client1.tcp.conn-45 ssthresh:vector ETV
attr interpolationmode sample-hold
vector 443 scenario.client1.tcp.conn-45 dupAcks:vector ETV
attr interpolationmode sample-hold
vector 444 scenario.client4.tcp.conn-47 tcpRcvQueueBytes:vector ETV
attr interpolationmode sample-hold
vector 445 scenario.client4.tcp.conn-47 rcvAdv:vector ETV
attr interpolationmode sample-hold
vector 446 scenario.client4.tcp.conn-47 rcvWnd:vector ETV
attr interpolationmode sample-hold
vector 447 scenario.client4.tcp.conn-47 sndAck:vector ETV
attr interpolationmode sample-hold
vector 448 scenario.client4.ppp[0].ppp rcvdPkFromHl:vector(packetBytes) ETV
attr interpolationmode none
attr source packetReceivedFromUpper
attr title "packets received from higher layer, vector(packetBytes)"
vector 449 scenario.client4.ppp[0].ppp.queue packetPushed:vector(packetBytes) ETV
attr interpolationmode none
attr title "packet pushed, vector(packetBytes)"
vector 450 scenario.client4.ppp[0].ppp.queue queueLength:vector ETV
attr interpolationmode sample-hold
attr source "count(packetPushed) - count(packetPopped) - count(packetRemoved) - count(packetDropped)"
attr title "queue length, vector"
vector 451 scenario.client4.ppp[0].ppp.queue packetPopped:vector(packetBytes) ETV
attr interpolationmode none
attr title "packet popped, vector(packetBytes)"
vector 452 scenario.client4.ppp[0].ppp.queue queueingTime:vector ETV
attr interpolationmode none
attr source queueingTime(packetPopped)
attr title "queueing times, vector"
attr unit s
vector 453 scenario.client4.ppp[0].ppp txPk:vector(packetBytes) ETV
attr interpolationmode none
attr source packetSentToLower
attr title "packets transmitted, vector(packetBytes)"
vector 454 scenario.client0.ppp[3].ppp rxPkOk:vector(packetBytes) ETV
attr interpolationmode none
attr source rxPkOk
attr title "packets received OK, vector(packetBytes)"
vector 455 scenario.client0.ppp[3].ppp passedUpPk:vector(packetBytes) ETV
attr interpolationmode none
attr source packetSentToUpper
attr title "packets passed to higher layer, vector(packetBytes)"
vector 456 scenario.client0.tcp.conn-48 rcvAdv:vector ETV
attr interpolationmode sample-hold
vector 457 scenario.client0.tcp.conn-48 sndWnd:vector ETV
attr interpolationmode sample-hold
vector 458 scenario.client0.tcp.conn-48 tcpRcvQueueBytes:vector ETV
attr interpolationmode sample-hold
vector 459 scenario.client0.tcp.conn-48 rcvWnd:vector ETV
attr interpolationmode sample-hold
vector 460 scenario.client0.tcp.conn-48 sndAck:vector ETV
attr interpolationmode sample-hold
vector 461 scenario.client0.ppp[3].ppp rcvdPkFromHl:vector(packetBytes) ETV
attr interpolationmode none
attr source packetReceivedFromUpper
attr title "packets received from higher layer, vector(packetBytes)"
vector 462 scenario.client0.ppp[3].ppp.queue packetPushed:vector(packetBytes) ETV
attr interpolationmode none
attr title "packet pushed, vector(packetBytes)"
vector 463 scenario.client0.ppp[3].ppp.queue queueLength:vector ETV
attr interpolationmode sample-hold
attr source "count(packetPushed) - count(packetPopped) - count(packetRemoved) - count(packetDropped)"
attr title "queue length, vector"
vector 464 scenario.client0.ppp[3].ppp.queue packetPopped:vector(packetBytes) ETV
attr interpolationmode none
attr title "packet popped, vector(packetBytes)"
vector 465 scenario.client0.ppp[3].ppp.queue queueingTime:vector ETV
attr interpolationmode none
attr source queueingTime(packetPopped)
attr title "queueing times, vector"
attr unit s
vector 466 scenario.client0.ppp[3].ppp txPk:vector(packetBytes) ETV
attr interpolationmode none
attr source packetSentToLower
attr title "packets transmitted, vector(packetBytes)"
vector 467 scenario.client4.ppp[0].ppp rxPkOk:vector(packetBytes) ETV
attr interpolationmode none
attr source rxPkOk
attr title "packets received OK, vector(packetBytes)"
vector 468 scenario.client4.ppp[0].ppp passedUpPk:vector(packetBytes) ETV
attr interpolationmode none
attr source packetSentToUpper
attr title "packets passed to higher layer, vector(packetBytes)"
vector 469 scenario.client4.tcp.conn-47 rcvSeq:vector ETV
attr interpolationmode sample-hold
vector 470 scenario.client4.tcp.conn-47 rcvAck:vector ETV
attr interpolationmode sample-hold
vector 471 scenario.client4.tcp.conn-47 sndWnd:vector ETV
attr interpolationmode sample-hold
vector 472 scenario.client4.tcp.conn-47 unacked:vector ETV
attr interpolationmode sample-hold
vector 473 scenario.client0.tcp.conn-48 rcvSeq:vector ETV
attr interpolationmode sample-hold
vector 474 scenario.client0.tcp.conn-48 rcvAck:vector ETV
attr interpolationmode sample-hold
vector 475 scenario.client0.tcp.conn-48 unacked:vector ETV
attr interpolationmode sample-hold
vector 476 scenario.client0.tcp.conn-48 cwnd:vector ETV
attr interpolationmode sample-hold
vector 477 scenario.client0.tcp.conn-48 ssthresh:vector ETV
attr interpolationmode sample-hold
vector 478 scenario.client0.tcp.conn-48 dupAcks:vector ETV
attr interpolationmode sample-hold
vector 479 scenario.client4.tcp.conn-47 rtt:vector ETV
attr interpolationmode sample-hold
vector 480 scenario.client4.tcp.conn-47 srtt:vector ETV
attr interpolationmode sample-hold
vector 481 scenario.client4.tcp.conn-47 rttvar:vector ETV
attr interpolationmode sample-hold
vector 482 scenario.client4.tcp.conn-47 rto:vector ETV
attr interpolationmode sample-hold
vector 483 scenario.client4.tcp.conn-47 cwnd:vector ETV
attr interpolationmode sample-hold
vector 484 scenario.client4.tcp.conn-47 ssthresh:vector ETV
attr interpolationmode sample-hold
vector 485 scenario.client4.tcp.conn-47 dupAcks:vector ETV
attr interpolationmode sample-hold
vector 486 scenario.client0.tcp.conn-49 tcpRcvQueueBytes:vector ETV
attr interpolationmode sample-hold
vector 487 scenario.client0.tcp.conn-49 rcvAdv:vector ETV
attr interpolationmode sample-hold
vector 488 scenario.client0.tcp.conn-49 rcvWnd:vector ETV
attr interpolationmode sample-hold
vector 489 scenario.client0.tcp.conn-49 sndAck:vector ETV
attr interpolationmode sample-hold
vector 490 scenario.client2.tcp.conn-50 rcvAdv:vector ETV
attr interpolationmode sample-hold
vector 491 scenario.client2.tcp.conn-50 sndWnd:vector ETV
attr interpolationmode sample-hold
vector 492 scenario.client2.tcp.conn-50 tcpRcvQueueBytes:vector ETV
attr interpolationmode sample-hold
vector 493 scenario.client2.tcp.conn-50 rcvWnd:vector ETV
attr interpolationmode sample-hold
vector 494 scenario.client2.tcp.conn-50 sndAck:vector ETV
attr interpolationmode sample-hold
vector 495 scenario.client0.tcp.conn-49 rcvSeq:vector ETV
attr interpolationmode sample-hold
vector 496 scenario.client0.tcp.conn-49 rcvAck:vector ETV
attr interpolationmode sample-hold
vector 497 scenario.client0.tcp.conn-49 sndWnd:vector ETV
attr interpolationmode sample-hold
vector 498 scenario.client0.tcp.conn-49 unacked:vector ETV
attr interpolationmode sample-hold
vector 499 scenario.client2.tcp.conn-50 rcvSeq:vector ETV
attr interpolationmode sample-hold
vector 500 scenario.client2.tcp.conn-50 rcvAck:vector ETV
attr interpolationmode sample-hold
vector 501 scenario.client2.tcp.conn-50 unacked:vector ETV
attr interpolationmode sample-hold
vector 502 scenario.client2.tcp.conn-50 cwnd:vector ETV
attr interpolationmode sample-hold
vector 503 scenario.client2.tcp.conn-50 ssthresh:vector ETV
attr interpolationmode sample-hold
vector 504 scenario.client2.tcp.conn-50 dupAcks:vector ETV
attr interpolationmode sample-hold
vector 505 scenario.client0.tcp.conn-49 rtt:vector ETV
attr interpolationmode sample-hold
vector 506 scenario.client0.tcp.conn-49 srtt:vector ETV
attr interpolationmode sample-hold
vector 507 scenario.client0.tcp.conn-49 rttvar:vector ETV
attr interpolationmode sample-hold
vector 508 scenario.client0.tcp.conn-49 rto:vector ETV
attr interpolationmode sample-hold
vector 509 scenario.client0.tcp.conn-49 cwnd:vector ETV
attr interpolationmode sample-hold
vector 510 scenario.client0.tcp.conn-49 ssthresh:vector ETV
attr interpolationmode sample-hold
vector 511 scenario.client0.tcp.conn-49 dupAcks:vector ETV
attr interpolationmode sample-hold
vector 512 scenario.client1.tcp.conn-51 tcpRcvQueueBytes:vector ETV
attr interpolationmode sample-hold
vector 513 scenario.client1.tcp.conn-51 rcvAdv:vector ETV
attr interpolationmode sample-hold
vector 514 scenario.client1.tcp.conn-51 rcvWnd:vector ETV
attr interpolationmode sample-hold
vector 515 scenario.client1.tcp.conn-51 sndAck:vector ETV
attr interpolationmode sample-hold
vector 516 scenario.client3.tcp.conn-52 rcvAdv:vector ETV
attr interpolationmode sample-hold
vector 517 scenario.client3.tcp.conn-52 sndWnd:vector ETV
attr interpolationmode sample-hold
vector 518 scenario.client3.tcp.conn-52 tcpRcvQueueBytes:vector ETV
attr interpolationmode sample-hold
vector 519 scenario.client3.tcp.conn-52 rcvWnd:vector ETV
attr interpolationmode sample-hold
vector 520 scenario.client3.tcp.conn-52 sndAck:vector ETV
attr interpolationmode sample-hold
vector 521 scenario.client1.tcp.conn-51 rcvSeq:vector ETV
attr interpolationmode sample-hold
vector 522 scenario.client1.tcp.conn-51 rcvAck:vector ETV
attr interpolationmode sample-hold
vector 523 scenario.client1.tcp.conn-51 sndWnd:vector ETV
attr interpolationmode sample-hold
vector 524 scenario.client1.tcp.conn-51 unacked:vector ETV
attr interpolationmode sample-hold
vector 525 scenario.client3.tcp.conn-52 rcvSeq:vector ETV
attr interpolationmode sample-hold
vector 526 scenario.client3.tcp.conn-52 rcvAck:vector ETV
attr interpolationmode sample-hold
vector 527 scenario.client3.tcp.conn-52 unacked:vector ETV
attr interpolationmode sample-hold
vector 528 scenario.client3.tcp.conn-52 cwnd:vector ETV
attr interpolationmode sample-hold
vector 529 scenario.client3.tcp.conn-52 ssthresh:vector ETV
attr interpolationmode sample-hold
vector 530 scenario.client3.tcp.conn-52 dupAcks:vector ETV
attr interpolationmode sample-hold
vector 531 scenario.client1.tcp.conn-51 rtt:vector ETV
attr interpolationmode sample-hold
vector 532 scenario.client1.tcp.conn-51 srtt:vector ETV
attr interpolationmode sample-hold
vector 533 scenario.client1.tcp.conn-51 rttvar:vector ETV
attr interpolationmode sample-hold
vector 534 scenario.client1.tcp.conn-51 rto:vector ETV
attr interpolationmode sample-hold
vector 535 scenario.client1.tcp.conn-51 cwnd:vector ETV
attr interpolationmode sample-hold
vector 536 scenario.client1.tcp.conn-51 ssthresh:vector ETV
attr interpolationmode sample-hold
vector 537 scenario.client1.tcp.conn-51 dupAcks:vector ETV
attr interpolationmode sample-hold
vector 538 scenario.client0.tcp.conn-53 tcpRcvQueueBytes:vector ETV
attr interpolationmode sample-hold
vector 539 scenario.client0.tcp.conn-53 rcvAdv:vector ETV
attr interpolationmode sample-hold
vector 540 scenario.client0.tcp.conn-53 rcvWnd:vector ETV
attr interpolationmode sample-hold
vector 541 scenario.client0.tcp.conn-53 sndAck:vector ETV
attr interpolationmode sample-hold
vector 542 scenario.client1.tcp.conn-54 rcvAdv:vector ETV
attr interpolationmode sample-hold
vector 543 scenario.client1.tcp.conn-54 sndWnd:vector ETV
attr interpolationmode sample-hold
vector 544 scenario.client1.tcp.conn-54 tcpRcvQueueBytes:vector ETV
attr interpolationmode sample-hold
vector 545 scenario.client1.tcp.conn-54 rcvWnd:vector ETV
attr interpolationmode sample-hold
vector 546 scenario.client1.tcp.conn-54 sndAck:vector ETV
attr interpolationmode sample-hold
vector 547 scenario.client0.tcp.conn-53 rcvSeq:vector ETV
attr interpolationmode sample-hold
vector 548 scenario.client0.tcp.conn-53 rcvAck:vector ETV
attr interpolationmode sample-hold
vector 549 scenario.client0.tcp.conn-53 sndWnd:vector ETV
attr interpolationmode sample-hold
vector 550 scenario.client0.tcp.conn-53 unacked:vector ETV
attr interpolationmode sample-hold
vector 551 scenario.client1.tcp.conn-54 rcvSeq:vector ETV
attr interpolationmode sample-hold
vector 552 scenario.client1.tcp.conn-54 rcvAck:vector ETV
attr interpolationmode sample-hold
vector 553 scenario.client1.tcp.conn-54 unacked:vector ETV
attr interpolationmode sample-hold
vector 554 scenario.client1.tcp.conn-54 cwnd:vector ETV
attr interpolationmode sample-hold
vector 555 scenario.client1.tcp.conn-54 ssthresh:vector ETV
attr interpolationmode sample-hold
vector 556 scenario.client1.tcp.conn-54 dupAcks:vector ETV
attr interpolationmode sample-hold
vector 557 scenario.client0.tcp.conn-53 rtt:vector ETV
attr interpolationmode sample-hold
vector 558 scenario.client0.tcp.conn-53 srtt:vector ETV
attr interpolationmode sample-hold
vector 559 scenario.client0.tcp.conn-53 rttvar:vector ETV
attr interpolationmode sample-hold
vector 560 scenario.client0.tcp.conn-53 rto:vector ETV
attr interpolationmode sample-hold
vector 561 scenario.client0.tcp.conn-53 cwnd:vector ETV
attr interpolationmode sample-hold
vector 562 scenario.client0.tcp.conn-53 ssthresh:vector ETV
attr interpolationmode sample-hold
vector 563 scenario.client0.tcp.conn-53 dupAcks:vector ETV
attr interpolationmode sample-hold
vector 564 scenario.client2.tcp.conn-55 tcpRcvQueueBytes:vector ETV
attr interpolationmode sample-hold
vector 565 scenario.client2.tcp.conn-55 rcvAdv:vector ETV
attr interpolationmode sample-hold
vector 566 scenario.client2.tcp.conn-55 rcvWnd:vector ETV
attr interpolationmode sample-hold
vector 567 scenario.client2.tcp.conn-55 sndAck:vector ETV
attr interpolationmode sample-hold
vector 568 scenario.client4.tcp.conn-56 rcvAdv:vector ETV
attr interpolationmode sample-hold
vector 569 scenario.client4.tcp.conn-56 sndWnd:vector ETV
attr interpolationmode sample-hold
vector 570 scenario.client4.tcp.conn-56 tcpRcvQueueBytes:vector ETV
attr interpolationmode sample-hold
vector 571 scenario.client4.tcp.conn-56 rcvWnd:vector ETV
attr interpolationmode sample-hold
vector 572 scenario.client4.tcp.conn-56 sndAck:vector ETV
attr interpolationmode sample-hold
vector 573 scenario.client2.tcp.conn-55 rcvSeq:vector ETV
attr interpolationmode sample-hold
vector 574 scenario.client2.tcp.conn-55 rcvAck:vector ETV
attr interpolationmode sample-hold
vector 575 scenario.client2.tcp.conn-55 sndWnd:vector ETV
attr interpolationmode sample-hold
vector 576 scenario.client2.tcp.conn-55 unacked:vector ETV
attr interpolationmode sample-hold
vector 577 scenario.client4.tcp.conn-56 rcvSeq:vector ETV
attr interpolationmode sample-hold
vector 578 scenario.client4.tcp.conn-56 rcvAck:vector ETV
attr interpolationmode sample-hold
vector 579 scenario.client4.tcp.conn-56 unacked:vector ETV
attr interpolationmode sample-hold
vector 580 scenario.client4.tcp.conn-56 cwnd:vector ETV
attr interpolationmode sample-hold
vector 581 scenario.client4.tcp.conn-56 ssthresh:vector ETV
attr interpolationmode sample-hold
vector 582 scenario.client4.tcp.conn-56 dupAcks:vector ETV
attr interpolationmode sample-hold
vector 583 scenario.client2.tcp.conn-55 rtt:vector ETV
attr interpolationmode sample-hold
vector 584 scenario.client2.tcp.conn-55 srtt:vector ETV
attr interpolationmode sample-hold
vector 585 scenario.client2.tcp.conn-55 rttvar:vector ETV
attr interpolationmode sample-hold
vector 586 scenario.client2.tcp.conn-55 rto:vector ETV
attr interpolationmode sample-hold
vector 587 scenario.client2.tcp.conn-55 cwnd:vector ETV
attr interpolationmode sample-hold
vector 588 scenario.client2.tcp.conn-55 ssthresh:vector ETV
attr interpolationmode sample-hold
vector 589 scenario.client2.tcp.conn-55 dupAcks:vector ETV
attr interpolationmode sample-hold
vector 590 scenario.client0.tcp.conn-57 tcpRcvQueueBytes:vector ETV
attr interpolationmode sample-hold
vector 591 scenario.client0.tcp.conn-57 rcvAdv:vector ETV
attr interpolationmode sample-hold
vector 592 scenario.client0.tcp.conn-57 rcvWnd:vector ETV
attr interpolationmode sample-hold
vector 593 scenario.client0.tcp.conn-57 sndAck:vector ETV
attr interpolationmode sample-hold
vector 594 scenario.client3.tcp.conn-58 rcvAdv:vector ETV
attr interpolationmode sample-hold
vector 595 scenario.client3.tcp.conn-58 sndWnd:vector ETV
attr interpolationmode sample-hold
vector 596 scenario.client3.tcp.conn-58 tcpRcvQueueBytes:vector ETV
attr interpolationmode sample-hold
vector 597 scenario.client3.tcp.conn-58 rcvWnd:vector ETV
attr interpolationmode sample-hold
vector 598 scenario.client3.tcp.conn-58 sndAck:vector ETV
attr interpolationmode sample-hold
vector 599 scenario.client0.tcp.conn-57 rcvSeq:vector ETV
attr interpolationmode sample-hold
vector 600 scenario.client0.tcp.conn-57 rcvAck:vector ETV
attr interpolationmode sample-hold
vector 601 scenario.client0.tcp.conn-57 sndWnd:vector ETV
attr interpolationmode sample-hold
vector 602 scenario.client0.tcp.conn-57 unacked:vector ETV
attr interpolationmode sample-hold
vector 603 scenario.client3.tcp.conn-58 rcvSeq:vector ETV
attr interpolationmode sample-hold
vector 604 scenario.client3.tcp.conn-58 rcvAck:vector ETV
attr interpolationmode sample-hold
vector 605 scenario.client3.tcp.conn-58 unacked:vector ETV
attr interpolationmode sample-hold
vector 606 scenario.client3.tcp.conn-58 cwnd:vector ETV
attr interpolationmode sample-hold
vector 607 scenario.client3.tcp.conn-58 ssthresh:vector ETV
attr interpolationmode sample-hold
vector 608 scenario.client3.tcp.conn-58 dupAcks:vector ETV
attr interpolationmode sample-hold
vector 609 scenario.client0.tcp.conn-57 rtt:vector ETV
attr interpolationmode sample-hold
vector 610 scenario.client0.tcp.conn-57 srtt:vector ETV
attr interpolationmode sample-hold
vector 611 scenario.client0.tcp.conn-57 rttvar:vector ETV
attr interpolationmode sample-hold
vector 612 scenario.client0.tcp.conn-57 rto:vector ETV
attr interpolationmode sample-hold
vector 613 scenario.client0.tcp.conn-57 cwnd:vector ETV
attr interpolationmode sample-hold
vector 614 scenario.client0.tcp.conn-57 ssthresh:vector ETV
attr interpolationmode sample-hold
vector 615 scenario.client0.tcp.conn-57 dupAcks:vector ETV
attr interpolationmode sample-hold
vector 616 scenario.client0.tcp.conn-59 tcpRcvQueueBytes:vector ETV
attr interpolationmode sample-hold
vector 617 scenario.client0.tcp.conn-59 rcvAdv:vector ETV
attr interpolationmode sample-hold
vector 618 scenario.client0.tcp.conn-59 rcvWnd:vector ETV
attr interpolationmode sample-hold
vector 619 scenario.client0.tcp.conn-59 sndAck:vector ETV
attr interpolationmode sample-hold
vector 620 scenario.client4.tcp.conn-60 rcvAdv:vector ETV
attr interpolationmode sample-hold
vector 621 scenario.client4.tcp.conn-60 sndWnd:vector ETV
attr interpolationmode sample-hold
vector 622 scenario.client4.tcp.conn-60 tcpRcvQueueBytes:vector ETV
attr interpolationmode sample-hold
vector 623 scenario.client4.tcp.conn-60 rcvWnd:vector ETV
attr interpolationmode sample-hold
vector 624 scenario.client4.tcp.conn-60 sndAck:vector ETV
attr interpolationmode sample-hold
vector 625 scenario.client0.tcp.conn-59 rcvSeq:vector ETV
attr interpolationmode sample-hold
vector 626 scenario.client0.tcp.conn-59 rcvAck:vector ETV
attr interpolationmode sample-hold
vector 627 scenario.client0.tcp.conn-59 sndWnd:vector ETV
attr interpolationmode sample-hold
vector 628 scenario.client0.tcp.conn-59 unacked:vector ETV
attr interpolationmode sample-hold
vector 629 scenario.client4.tcp.conn-60 rcvSeq:vector ETV
attr interpolationmode sample-hold
vector 630 scenario.client4.tcp.conn-60 rcvAck:vector ETV
attr interpolationmode sample-hold
vector 631 scenario.client4.tcp.conn-60 unacked:vector ETV
attr interpolationmode sample-hold
vector 632 scenario.client4.tcp.conn-60 cwnd:vector ETV
attr interpolationmode sample-hold
vector 633 scenario.client4.tcp.conn-60 ssthresh:vector ETV
attr interpolationmode sample-hold
vector 634 scenario.client4.tcp.conn-60 dupAcks:vector ETV
attr interpolationmode sample-hold
vector 635 scenario.client0.tcp.conn-59 rtt:vector ETV
attr interpolationmode sample-hold
vector 636 scenario.client0.tcp.conn-59 srtt:vector ETV
attr interpolationmode sample-hold
vector 637 scenario.client0.tcp.conn-59 rttvar:vector ETV
attr interpolationmode sample-hold
vector 638 scenario.client0.tcp.conn-59 rto:vector ETV
attr interpolationmode sample-hold
vector 639 scenario.client0.tcp.conn-59 cwnd:vector ETV
attr interpolationmode sample-hold
vector 640 scenario.client0.tcp.conn-59 ssthresh:vector ETV
attr interpolationmode sample-hold
vector 641 scenario.client0.tcp.conn-59 dupAcks:vector ETV
attr interpolationmode sample-hold
vector 642 scenario.client3.tcp.conn-61 tcpRcvQueueBytes:vector ETV
attr interpolationmode sample-hold
vector 643 scenario.client3.tcp.conn-61 rcvAdv:vector ETV
attr interpolationmode sample-hold
vector 644 scenario.client3.tcp.conn-61 rcvWnd:vector ETV
attr interpolationmode sample-hold
vector 645 scenario.client3.tcp.conn-61 sndAck:vector ETV
attr interpolationmode sample-hold
vector 646 scenario.client3.ppp[3].ppp rcvdPkFromHl:vector(packetBytes) ETV
attr interpolationmode none
attr source packetReceivedFromUpper
attr title "packets received from higher layer, vector(packetBytes)"
vector 647 scenario.client3.ppp[3].ppp.queue packetPushed:vector(packetBytes) ETV
attr interpolationmode none
attr title "packet pushed, vector(packetBytes)"
vector 648 scenario.client3.ppp[3].ppp.queue queueLength:vector ETV
attr interpolationmode sample-hold
attr source "count(packetPushed) - count(packetPopped) - count(packetRemoved) - count(packetDropped)"
attr title "queue length, vector"
vector 649 scenario.client3.ppp[3].ppp.queue packetPopped:vector(packetBytes) ETV
attr interpolationmode none
attr title "packet popped, vector(packetBytes)"
vector 650 scenario.client3.ppp[3].ppp.queue queueingTime:vector ETV
attr interpolationmode none
attr source queueingTime(packetPopped)
attr title "queueing times, vector"
attr unit s
vector 651 scenario.client3.ppp[3].ppp txPk:vector(packetBytes) ETV
attr interpolationmode none
attr source packetSentToLower
attr title "packets transmitted, vector(packetBytes)"
vector 652 scenario.client4.ppp[3].ppp rxPkOk:vector(packetBytes) ETV
attr interpolationmode none
attr source rxPkOk
attr title "packets received OK, vector(packetBytes)"
vector 653 scenario.client4.ppp[3].ppp passedUpPk:vector(packetBytes) ETV
attr interpolationmode none
attr source packetSentToUpper
attr title "packets passed to higher layer, vector(packetBytes)"
vector 654 scenario.client4.tcp.conn-62 rcvAdv:vector ETV
attr interpolationmode sample-hold
vector 655 scenario.client4.tcp.conn-62 sndWnd:vector ETV
attr interpolationmode sample-hold
vector 656 scenario.client4.tcp.conn-62 tcpRcvQueueBytes:vector ETV
attr interpolationmode sample-hold
vector 657 scenario.client4.tcp.conn-62 rcvWnd:vector ETV
attr interpolationmode sample-hold
vector 658 scenario.client4.tcp.conn-62 sndAck:vector ETV
attr interpolationmode sample-hold
vector 659 scenario.client4.ppp[3].ppp rcvdPkFromHl:vector(packetBytes) ETV
attr interpolationmode none
attr source packetReceivedFromUpper
attr title "packets received from higher layer, vector(packetBytes)"
vector 660 scenario.client4.ppp[3].ppp.queue packetPushed:vector(packetBytes) ETV
attr interpolationmode none
attr title "packet pushed, vector(packetBytes)"
vector 661 scenario.client4.ppp[3].ppp.queue queueLength:vector ETV
attr interpolationmode sample-hold
attr source "count(packetPushed) - count(packetPopped) - count(packetRemoved) - count(packetDropped)"
attr title "queue length, vector"
vector 662 scenario.client4.ppp[3].ppp.queue packetPopped:vector(packetBytes) ETV
attr interpolationmode none
attr title "packet popped, vector(packetBytes)"
[...]
476	267713 29 411 411 1.209517835017 1.209517835017 1 1072 1072 1072 1149184
477	267742 35 411 411 1.209517835017 1.209517835017 1 4294967295 4294967295 4294967295 1.844674406512e+019
478	267777 80 411 2033 1.209517835017 8.064108100833 3 0 0 0 0
479	267857 98 421 2056 1.210393835017 8.064984100833 3 0.00176 0.00176 0.00528 9.2928e-006
480	267955 105 421 2056 1.210393835017 8.064984100833 3 0.00022 0.0005809375 0.0012134375 5.5604462890625e-007
481	268060 107 421 2056 1.210393835017 8.064984100833 3 0.50294671875 0.65647 1.73402046875 1.0140777323155
482	268167 104 421 2056 1.210393835017 8.064984100833 3 2.0123678125 2.6261 6.9372953125 16.230633297542
483	268271 89 421 2056 1.210393835017 8.064984100833 3 1072 1072 3216 3447552
484	268360 107 421 2056 1.210393835017 8.064984100833 3 4294967295 4294967295 12884901885 5.5340232195359e+019
485	268467 80 421 2056 1.210393835017 8.064984100833 3 0 0 0 0
486	268547 344 423 2546 1.240488018433 8.40668044325 13 0 0 0 0
487	268891 438 423 2546 1.240488018433 8.40668044325 14 7504 317854 4139606 1313461459124
488	269329 383 423 2546 1.240488018433 8.40668044325 13 7504 7504 97552 732030208
489	269712 404 423 2546 1.240488018433 8.40668044325 13 0 310350 3724200 1155805470000
490	270116 440 430 2552 1.241396018433 8.40756444325 14 317627 317641 4446868 1412473929550
491	270556 58 430 443 1.241396018433 1.243188018433 2 7504 7504 15008 112620032
492	270614 662 430 2552 1.241396018433 8.40756444325 25 0 1 1 1
493	271276 383 430 2552 1.241396018433 8.40756444325 13 7503 7504 97551 732015201
494	271659 409 430 2552 1.241396018433 8.40756444325 13 310123 310137 4031690 1250348019948
495	272068 409 436 2559 1.242304018433 8.40844044325 13 310349 310350 4034549 1252121971801
496	272477 409 436 2559 1.242304018433 8.40844044325 13 310123 310137 4031690 1250348019948
497	272886 383 436 2559 1.242304018433 8.40844044325 13 7503 7504 97551 732015201
498	273269 636 436 2559 1.242304018433 8.40844044325 24 0 2 14 18
499	273905 378 443 2552 1.243188018433 8.40756444325 12 310123 310136 3721553 1154163061179
500	274283 378 443 2552 1.243188018433 8.40756444325 12 310350 310350 3724200 1155805470000
501	274661 26 443 443 1.243188018433 1.243188018433 1 0 0 0 0
502	274687 29 443 443 1.243188018433 1.243188018433 1 1072 1072 1072 1149184
503	274716 35 443 443 1.243188018433 1.243188018433 1 4294967295 4294967295 4294967295 1.844674406512e+019
504	274751 318 443 2552 1.243188018433 8.40756444325 12 0 0 0 0
505	275069 392 453 2559 1.244064018433 8.40844044325 12 0.00176 0.002144 0.021512 3.869856e-005
506	275461 458 453 2559 1.244064018433 8.40844044325 12 0.00022 0.001420702861 0.011567079982 1.2810781673492e-005
507	275919 461 453 2559 1.244064018433 8.40844044325 12 0.15166705665 0.65647 4.199696226343 1.7675259640994
508	276380 407 453 2559 1.244064018433 8.40844044325 12 1 2.6261 17.808624455344 30.005191073024
509	276787 354 453 2559 1.244064018433 8.40844044325 12 1072 4288 29480 84177728
510	277141 426 453 2559 1.244064018433 8.40844044325 12 4294967295 4294967295 51539607540 2.2136092878144e+020
511	277567 318 453 2559 1.244064018433 8.40844044325 12 0 0 0 0
512	277885 320 455 3011 1.294318091372 9.751722711386 12 0 0 0 0
513	278205 409 455 3011 1.294318091372 9.751722711386 13 7504 331311 3983236 1317260054668
514	278614 356 455 3011 1.294318091372 9.751722711386 12 7504 7504 90048 675720192
515	278970 375 455 3011 1.294318091372 9.751722711386 12 0 323807 3561877 1153360705739
516	279345 412 462 3017 1.295226091372 9.752606711386 13 331084 331097 4304170 1425067645560
517	279757 58 462 475 1.295226091372 1.297018091372 2 7504 7504 15008 112620032
518	279815 616 462 3017 1.295226091372 9.752606711386 23 0 1 1 1
519	280431 357 462 3017 1.295226091372 9.752606711386 12 7503 7504 90047 675705185
520	280788 381 462 3017 1.295226091372 9.752606711386 12 323580 323593 3883039 1256499323169
521	281169 381 468 3024 1.296134091372 9.753482711386 12 323806 323807 3885683 1258211031375
522	281550 381 468 3024 1.296134091372 9.753482711386 12 323580 323593 3883039 1256499323169
523	281931 357 468 3024 1.296134091372 9.753482711386 12 7503 7504 90047 675705185
524	282288 589 468 3024 1.296134091372 9.753482711386 22 0 2 13 17
525	282877 350 475 3017 1.297018091372 9.752606711386 11 323580 323592 3559446 1151786893520
526	283227 350 475 3017 1.297018091372 9.752606711386 11 323807 323807 3561877 1153360705739
527	283577 26 475 475 1.297018091372 1.297018091372 1 0 0 0 0
528	283603 29 475 475 1.297018091372 1.297018091372 1 1072 1072 1072 1149184
529	283632 35 475 475 1.297018091372 1.297018091372 1 4294967295 4294967295 4294967295 1.844674406512e+019
530	283667 295 475 3017 1.297018091372 9.752606711386 11 0 0 0 0
531	283962 363 485 3024 1.297894091372 9.753482711386 11 0.00176 0.002144 0.020128 3.7071872e-005
532	284325 422 485 3024 1.297894091372 9.753482711386 11 0.00022 0.001403513091 0.010303408371 1.119718130529e-005
533	284747 426 485 3024 1.297894091372 9.753482711386 11 0.173296008577 0.65647 4.048156044693 1.7445802696737
534	285173 384 485 3024 1.297894091372 9.753482711386 11 1 2.6261 16.808864455344 29.005687834303
535	285557 328 485 3024 1.297894091372 9.753482711386 11 1072 3752 23048 56597312
536	285885 394 485 3024 1.297894091372 9.753482711386 11 4294967295 4294967295 47244640245 2.0291418471632e+020
537	286279 295 485 3024 1.297894091372 9.753482711386 11 0 0 0 0
538	286574 346 487 2621 1.330517621388 8.574194468215 13 0 0 0 0
539	286920 440 487 2621 1.330517621388 8.574194468215 14 7504 340361 4432197 1506049244189
540	287360 385 487 2621 1.330517621388 8.574194468215 13 7504 7504 97552 732030208
541	287745 406 487 2621 1.330517621388 8.574194468215 13 0 332857 3994284 1329525389388
542	288151 442 494 2627 1.331425621388 8.575078468215 14 340134 340148 4761966 1619737156388
543	288593 58 494 507 1.331425621388 1.333217621388 2 7504 7504 15008 112620032
544	288651 666 494 2627 1.331425621388 8.575078468215 25 0 1 1 1
545	289317 385 494 2627 1.331425621388 8.575078468215 13 7503 7504 97551 732015201
546	289702 411 494 2627 1.331425621388 8.575078468215 13 332630 332644 4324281 1438415859245
547	290113 411 500 2634 1.332333621388 8.575954468215 13 332856 332857 4327140 1440318506124
548	290524 411 500 2634 1.332333621388 8.575954468215 13 332630 332644 4324281 1438415859245
549	290935 385 500 2634 1.332333621388 8.575954468215 13 7503 7504 97551 732015201
550	291320 640 500 2634 1.332333621388 8.575954468215 24 0 2 14 18
551	291960 380 507 2627 1.333217621388 8.575078468215 12 332630 332643 3991637 1327763828509
552	292340 380 507 2627 1.333217621388 8.575078468215 12 332857 332857 3994284 1329525389388
553	292720 26 507 507 1.333217621388 1.333217621388 1 0 0 0 0
554	292746 29 507 507 1.333217621388 1.333217621388 1 1072 1072 1072 1149184
555	292775 35 507 507 1.333217621388 1.333217621388 1 4294967295 4294967295 4294967295 1.844674406512e+019
556	292810 320 507 2627 1.333217621388 8.575078468215 12 0 0 0 0
557	293130 394 517 2634 1.334093621388 8.575954468215 12 0.00176 0.001768 0.021136 3.7227648e-005
558	293524 462 517 2634 1.334093621388 8.575954468215 12 0.00022 0.001406571945 0.011289996401 1.2266369618226e-005
559	293986 461 517 2634 1.334093621388 8.575954468215 12 0.151671094053 0.65647 4.19955491717 1.7674058318761
560	294447 409 517 2634 1.334093621388 8.575954468215 12 1 2.6261 17.8078386411 30.002612344479
561	294856 356 517 2634 1.334093621388 8.575954468215 12 1072 4288 29480 84177728
562	295212 428 517 2634 1.334093621388 8.575954468215 12 4294967295 4294967295 51539607540 2.2136092878144e+020
563	295640 320 517 2634 1.334093621388 8.575954468215 12 0 0 0 0
564	295960 187 524 2876 1.434774953459 9.007498339304 7 0 0 0 0
565	296147 251 524 2876 1.434774953459 9.007498339304 8 7504 366425 2572479 939927274391
566	296398 208 524 2876 1.434774953459 9.007498339304 7 7504 7504 52528 394170112
567	296606 217 524 2876 1.434774953459 9.007498339304 7 0 358921 2153526 772945705446
568	296823 253 531 2882 1.435682953459 9.008382339304 8 366198 366205 2929607 1072824646863
569	297076 58 531 544 1.435682953459 1.437474953459 2 7504 7504 15008 112620032
570	297134 348 531 2882 1.435682953459 9.008382339304 13 0 1 1 1
571	297482 208 531 2882 1.435682953459 9.008382339304 7 7503 7504 52527 394155105
572	297690 222 531 2882 1.435682953459 9.008382339304 7 358694 358701 2510882 900646916888
573	297912 222 537 2889 1.436590953459 9.009258339304 7 358920 358921 2512446 901769271846
574	298134 222 537 2889 1.436590953459 9.009258339304 7 358694 358701 2510882 900646916888
575	298356 208 537 2889 1.436590953459 9.009258339304 7 7503 7504 52527 394155105
576	298564 322 537 2889 1.436590953459 9.009258339304 12 0 2 7 9
577	298886 191 544 2882 1.437474953459 9.008382339304 6 358694 358700 2152181 771980509487
578	299077 191 544 2882 1.437474953459 9.008382339304 6 358921 358921 2153526 772945705446
579	299268 26 544 544 1.437474953459 1.437474953459 1 0 0 0 0
580	299294 29 544 544 1.437474953459 1.437474953459 1 1072 1072 1072 1149184
581	299323 35 544 544 1.437474953459 1.437474953459 1 4294967295 4294967295 4294967295 1.844674406512e+019
582	299358 161 544 2882 1.437474953459 9.008382339304 6 0 0 0 0
583	299519 198 554 2889 1.438350953459 9.009258339304 6 0.00176 0.001768 0.010568 1.8613824e-005
584	299717 225 554 2889 1.438350953459 9.009258339304 6 0.00022 0.000970885865 0.003771798952 2.7670025850115e-006
585	299942 227 554 2889 1.438350953459 9.009258339304 6 0.337274075623 0.65647 2.896848557557 1.470108226858
586	300169 224 554 2889 1.438350953459 9.009258339304 6 1.350067188357 2.6261 11.59116602918 23.534956953703
587	300393 179 554 2889 1.438350953459 9.009258339304 6 1072 2680 10184 19248832
588	300572 215 554 2889 1.438350953459 9.009258339304 6 4294967295 4294967295 25769803770 1.1068046439072e+020
589	300787 161 554 2889 1.438350953459 9.009258339304 6 0 0 0 0
590	300948 321 556 2776 1.554305273598 8.731641532151 12 0 0 0 0
591	301269 410 556 2776 1.554305273598 8.731641532151 13 7504 396308 4763200 1884776680384
592	301679 357 556 2776 1.554305273598 8.731641532151 12 7504 7504 90048 675720192
593	302036 376 556 2776 1.554305273598 8.731641532151 12 0 388804 4276844 1662854054576
594	302412 412 563 2782 1.555213273598 8.732525532151 13 396081 396094 5149132 2039504642824
595	302824 58 563 576 1.555213273598 1.557005273598 2 7504 7504 15008 112620032
596	302882 616 563 2782 1.555213273598 8.732525532151 23 0 1 1 1
597	303498 357 563 2782 1.555213273598 8.732525532151 12 7503 7504 90047 675705185
598	303855 381 563 2782 1.555213273598 8.732525532151 12 388577 388590 4663004 1811967192202
599	304236 381 569 2789 1.556121273598 8.733401532151 12 388803 388804 4665647 1814021827385
600	304617 381 569 2789 1.556121273598 8.733401532151 12 388577 388590 4663004 1811967192202
601	304998 357 569 2789 1.556121273598 8.733401532151 12 7503 7504 90047 675705185
602	305355 590 569 2789 1.556121273598 8.733401532151 22 0 2 13 17
603	305945 350 576 2782 1.557005273598 8.732525532151 11 388577 388589 4274414 1660965004102
604	306295 350 576 2782 1.557005273598 8.732525532151 11 388804 388804 4276844 1662854054576
605	306645 26 576 576 1.557005273598 1.557005273598 1 0 0 0 0
606	306671 29 576 576 1.557005273598 1.557005273598 1 1072 1072 1072 1149184
607	306700 35 576 576 1.557005273598 1.557005273598 1 4294967295 4294967295 4294967295 1.844674406512e+019
608	306735 295 576 2782 1.557005273598 8.732525532151 11 0 0 0 0
609	307030 363 586 2789 1.557881273598 8.733401532151 11 0.00176 0.001768 0.019376 3.4130048e-005
610	307393 423 586 2789 1.557881273598 8.733401532151 11 0.00022 0.001355834193 0.009885160658 1.0290735324612e-005
611	307816 425 586 2789 1.557881273598 8.733401532151 11 0.173280286662 0.65647 4.047884666907 1.7444025985962
612	308241 383 586 2789 1.557881273598 8.733401532151 11 1 2.6261 16.807844346359 29.002631959803
613	308624 328 586 2789 1.557881273598 8.733401532151 11 1072 4288 26264 73835072
614	308952 394 586 2789 1.557881273598 8.733401532151 11 4294967295 4294967295 47244640245 2.0291418471632e+020
615	309346 295 586 2789 1.557881273598 8.733401532151 11 0 0 0 0
616	309641 187 648 2591 2.043893884091 8.520787076632 7 0 0 0 0
617	309828 251 648 2591 2.043893884091 8.520787076632 8 7504 518705 3638439 1883440449191
618	310079 208 648 2591 2.043893884091 8.520787076632 7 7504 7504 52528 394170112
619	310287 217 648 2591 2.043893884091 8.520787076632 7 0 511201 3067206 1567958774406
620	310504 253 655 2597 2.044801884091 8.521671076632 8 518478 518485 4147847 2150579341983
621	310757 58 655 668 2.044801884091 2.046593884091 2 7504 7504 15008 112620032
622	310815 348 655 2597 2.044801884091 8.521671076632 13 0 1 1 1
623	311163 208 655 2597 2.044801884091 8.521671076632 7 7503 7504 52527 394155105
624	311371 222 655 2597 2.044801884091 8.521671076632 7 510974 510981 3576842 1827685527608
625	311593 222 661 2604 2.045709884091 8.522547076632 7 511200 511201 3578406 1829284214406
626	311815 222 661 2604 2.045709884091 8.522547076632 7 510974 510981 3576842 1827685527608
627	312037 208 661 2604 2.045709884091 8.522547076632 7 7503 7504 52527 394155105
628	312245 322 661 2604 2.045709884091 8.522547076632 12 0 2 7 9
629	312567 191 668 2597 2.046593884091 8.521671076632 6 510974 510980 3065861 1566583945247
630	312758 191 668 2597 2.046593884091 8.521671076632 6 511201 511201 3067206 1567958774406
631	312949 26 668 668 2.046593884091 2.046593884091 1 0 0 0 0
632	312975 29 668 668 2.046593884091 2.046593884091 1 1072 1072 1072 1149184
633	313004 35 668 668 2.046593884091 2.046593884091 1 4294967295 4294967295 4294967295 1.844674406512e+019
634	313039 161 668 2597 2.046593884091 8.521671076632 6 0 0 0 0
635	313200 198 678 2604 2.047469884091 8.522547076632 6 0.00176 0.002144 0.010944 2.0084736e-005
636	313398 224 678 2604 2.047469884091 8.522547076632 6 0.00022 0.00100687024 0.003895908327 2.9812105486858e-006
637	313622 227 678 2604 2.047469884091 8.522547076632 6 0.337299778748 0.65647 2.896956510682 1.4701941158525
638	313849 224 678 2604 2.047469884091 8.522547076632 6 1.350205985232 2.6261 11.591721951055 23.536721535057
639	314073 179 678 2604 2.047469884091 8.522547076632 6 1072 2144 8576 13215616
640	314252 215 678 2604 2.047469884091 8.522547076632 6 4294967295 4294967295 25769803770 1.1068046439072e+020
641	314467 161 678 2604 2.047469884091 8.522547076632 6 0 0 0 0
642	314628 187 868 2791 2.744422506668 8.744547751335 7 0 0 0 0
643	314815 251 868 2791 2.744422506668 8.744547751335 8 7504 693837 4864363 3369924787999
644	315066 208 868 2791 2.744422506668 8.744547751335 7 7504 7504 52528 394170112
645	315274 217 868 2791 2.744422506668 8.744547751335 7 0 686333 4117998 2826317921334
646	315491 276 873 2793 2.744422506668 8.744547751335 10 40 44 415 17241
647	315767 276 873 2793 2.744422506668 8.744547751335 10 40 44 415 17241
648	316043 532 873 2793 2.744422506668 8.744547751335 20 0 1 10 10
649	316575 276 873 2793 2.744422506668 8.744547751335 10 40 44 415 17241
650	316851 266 873 2793 2.744422506668 8.744547751335 10 0 0 0 0
651	317117 276 873 2793 2.744422506668 8.744547751335 10 47 51 485 23541
652	317393 276 897 2795 2.745330506668 8.745431751335 10 47 51 485 23541
653	317669 276 897 2795 2.745330506668 8.745431751335 10 40 44 415 17241
654	317945 253 899 2797 2.745330506668 8.745431751335 8 693610 693617 5548903 3848790562983
655	318198 58 899 919 2.745330506668 2.747122506668 2 7504 7504 15008 112620032
656	318256 348 899 2797 2.745330506668 8.745431751335 13 0 1 1 1
657	318604 208 899 2797 2.745330506668 8.745431751335 7 7503 7504 52527 394155105
658	318812 222 899 2797 2.745330506668 8.745431751335 7 686106 686113 4802766 3295223035864
659	319034 276 901 2800 2.745330506668 8.745431751335 10 40 44 410 16834
660	319310 276 901 2800 2.745330506668 8.745431751335 10 40 44 410 16834
661	319586 532 901 2800 2.745330506668 8.745431751335 20 0 1 10 10
662	320118 276 901 2800 2.745330506668 8.745431751335 10 40 44 410 16834
663	320394 266 901 2800 2.745330506668 8.745431751335 10 0 0 0 0
664	320660 276 901 2800 2.745330506668 8.745431751335 10 47 51 480 23064
665	320936 276 910 2802 2.746238506668 8.746307751335 10 47 51 480 23064
666	321212 276 910 2802 2.746238506668 8.746307751335 10 40 44 410 16834
667	321488 222 912 2804 2.746238506668 8.746307751335 7 686332 686333 4804330 3297369535558
668	321710 222 912 2804 2.746238506668 8.746307751335 7 686106 686113 4802766 3295223035864
669	321932 208 912 2804 2.746238506668 8.746307751335 7 7503 7504 52527 394155105
670	322140 322 912 2804 2.746238506668 8.746307751335 12 0 2 7 9
671	322462 191 919 2797 2.747122506668 8.745431751335 6 686106 686112 4116653 2824471987095
672	322653 191 919 2797 2.747122506668 8.745431751335 6 686333 686333 4117998 2826317921334
673	322844 26 919 919 2.747122506668 2.747122506668 1 0 0 0 0
674	322870 29 919 919 2.747122506668 2.747122506668 1 1072 1072 1072 1149184
675	322899 35 919 919 2.747122506668 2.747122506668 1 4294967295 4294967295 4294967295 1.844674406512e+019
676	322934 161 919 2797 2.747122506668 8.745431751335 6 0 0 0 0
677	323095 198 929 2804 2.747998506668 8.746307751335 6 0.00176 0.001768 0.010568 1.8613824e-005
678	323293 225 929 2804 2.747998506668 8.746307751335 6 0.00022 0.000970885865 0.003771798952 2.7670025850115e-006
679	323518 227 929 2804 2.747998506668 8.746307751335 6 0.337274075623 0.65647 2.896848557557 1.470108226858
680	323745 224 929 2804 2.747998506668 8.746307751335 6 1.350067188357 2.6261 11.59116602918 23.534956953703
681	323969 179 929 2804 2.747998506668 8.746307751335 6 1072 3216 11792 27005824
682	324148 215 929 2804 2.747998506668 8.746307751335 6 4294967295 4294967295 25769803770 1.1068046439072e+020
683	324363 161 929 2804 2.747998506668 8.746307751335 6 0 0 0 0
684	324524 79 1425 2761 6.39359111301 8.719890869228 3 0 0 0 0
685	324603 126 1425 2761 6.39359111301 8.719890869228 4 7504 1606129 4825891 7739007403939
686	324729 88 1425 2761 6.39359111301 8.719890869228 3 7504 7504 22512 168930048
687	324817 91 1425 2761 6.39359111301 8.719890869228 3 0 1598625 3197250 5111203781250
688	324908 129 1432 2767 6.39449911301 8.720774869228 4 1605902 1605904 6423610 10315691358028
689	325037 58 1432 1445 6.39449911301 6.39629111301 2 7504 7504 15008 112620032
690	325095 132 1432 2767 6.39449911301 8.720774869228 5 0 1 1 1
691	325227 88 1432 2767 6.39449911301 8.720774869228 3 7503 7504 22511 168915041
692	325315 97 1432 2767 6.39449911301 8.720774869228 3 1598398 1598400 4795197 7664638089605
693	325412 97 1438 2774 6.39540711301 8.721650869228 3 1598624 1598625 4795874 7666802474626
694	325509 97 1438 2774 6.39540711301 8.721650869228 3 1598398 1598400 4795197 7664638089605
695	325606 88 1438 2774 6.39540711301 8.721650869228 3 7503 7504 22511 168915041
696	325694 106 1438 2774 6.39540711301 8.721650869228 4 0 1 2 2
697	325800 65 1445 2767 6.39629111301 8.720774869228 2 1598398 1598399 3196797 5109755529605
698	325865 65 1445 2767 6.39629111301 8.720774869228 2 1598625 1598625 3197250 5111203781250
699	325930 26 1445 1445 6.39629111301 6.39629111301 1 0 0 0 0
700	325956 29 1445 1445 6.39629111301 6.39629111301 1 1072 1072 1072 1149184
701	325985 35 1445 1445 6.39629111301 6.39629111301 1 4294967295 4294967295 4294967295 1.844674406512e+019
702	326020 53 1445 2767 6.39629111301 8.720774869228 2 0 0 0 0
703	326073 65 1455 2774 6.39716711301 8.721650869228 2 0.00176 0.00176 0.00352 6.1952e-006
704	326138 67 1455 2774 6.39716711301 8.721650869228 2 0.00022 0.0004125 0.0006325 2.1855625e-007
705	326205 68 1455 2774 6.39716711301 8.721650869228 2 0.57460375 0.65647 1.23107375 0.76112233041406
706	326273 66 1455 2774 6.39716711301 8.721650869228 2 2.2988275 2.6261 4.9249275 12.181009084756
707	326339 59 1455 2774 6.39716711301 8.721650869228 2 1072 1608 2680 3734848
708	326398 71 1455 2774 6.39716711301 8.721650869228 2 4294967295 4294967295 8589934590 3.6893488130239e+019
709	326469 53 1455 2774 6.39716711301 8.721650869228 2 0 0 0 0

