version 2
run BROADCAST-0-20220111-20:53:07-14368
attr configname BROADCAST
attr datetime 20220111-20:53:07
attr experiment BROADCAST
attr inifile omnetpp.ini
attr iterationvars ""
attr iterationvarsf ""
attr measurement ""
attr network scenario
attr processid 14368
attr repetition 0
attr replication #0
attr resultdir results
attr runnumber 0
attr seedset 0
param **.client0.app[0].broadcast 0.7
param **.client2.app[0].leave 0.40
param **.client*.app[*].timer 0.2
param **.ppp[*].ppp.queue.typename "\"DropTailQueue\""
param **.tcp.typename "\"Tcp\""
param **.tcp.nagleEnabled false
param **.cli*.app[*].nPar 5
param **.cli*.app[*].fPar 0
param **.numApps 1
param **.client0.app[*].typename "\"Node\""
param **.client0.app[0].localPort 1000
param **.client0.app[0].localPortL 1234
param **.client0.app[0].connectAddress "\"\""
param **.client0.app[0].connectPort 1234
param **.client1.app[*].typename "\"Node\""
param **.client1.app[0].localPort 1001
param **.client1.app[0].localPortL 1234
param **.client1.app[0].connectAddress "\"\""
param **.client1.app[0].connectPort 1234
param **.client2.app[*].typename "\"Node\""
param **.client2.app[0].localPort 1002
param **.client2.app[0].localPortL 1234
param **.client2.app[0].connectAddress "\"\""
param **.client2.app[0].connectPort 1234
param **.client3.app[*].typename "\"Node\""
param **.client3.app[0].localPort 1003
param **.client3.app[0].localPortL 1234
param **.client3.app[0].connectAddress "\"\""
param **.client3.app[0].connectPort 1234
param **.client4.app[*].typename "\"Node\""
param **.client4.app[0].localPort 1004
param **.client4.app[0].localPortL 1234
param **.client4.app[0].connectAddress "\"\""
param **.client4.app[0].connectPort 1234
param *.configurator.dumpAddresses true
param *.configurator.dumpTopology true
param *.configurator.dumpLinks true
param *.configurator.dumpRoutes true

vector 0 scenario.client0.ppp[0].ppp transmissionState:vector ETV
attr interpolationmode sample-hold
attr source transmissionStateChanged
attr title "tx state, vector"
vector 1 scenario.client0.ppp[1].ppp transmissionState:vector ETV
attr interpolationmode sample-hold
attr source transmissionStateChanged
attr title "tx state, vector"
vector 2 scenario.client0.ppp[2].ppp transmissionState:vector ETV
attr interpolationmode sample-hold
attr source transmissionStateChanged
attr title "tx state, vector"
vector 3 scenario.client0.ppp[3].ppp transmissionState:vector ETV
attr interpolationmode sample-hold
attr source transmissionStateChanged
attr title "tx state, vector"
vector 4 scenario.client1.ppp[0].ppp transmissionState:vector ETV
attr interpolationmode sample-hold
attr source transmissionStateChanged
attr title "tx state, vector"
vector 5 scenario.client1.ppp[1].ppp transmissionState:vector ETV
attr interpolationmode sample-hold
attr source transmissionStateChanged
attr title "tx state, vector"
vector 6 scenario.client1.ppp[2].ppp transmissionState:vector ETV
attr interpolationmode sample-hold
attr source transmissionStateChanged
attr title "tx state, vector"
vector 7 scenario.client1.ppp[3].ppp transmissionState:vector ETV
attr interpolationmode sample-hold
attr source transmissionStateChanged
attr title "tx state, vector"
vector 8 scenario.client2.ppp[0].ppp transmissionState:vector ETV
attr interpolationmode sample-hold
attr source transmissionStateChanged
attr title "tx state, vector"
vector 9 scenario.client2.ppp[1].ppp transmissionState:vector ETV
attr interpolationmode sample-hold
attr source transmissionStateChanged
attr title "tx state, vector"
vector 10 scenario.client2.ppp[2].ppp transmissionState:vector ETV
attr interpolationmode sample-hold
attr source transmissionStateChanged
attr title "tx state, vector"
vector 11 scenario.client2.ppp[3].ppp transmissionState:vector ETV
attr interpolationmode sample-hold
attr source transmissionStateChanged
attr title "tx state, vector"
vector 12 scenario.client3.ppp[0].ppp transmissionState:vector ETV
attr interpolationmode sample-hold
attr source transmissionStateChanged
attr title "tx state, vector"
vector 13 scenario.client3.ppp[1].ppp transmissionState:vector ETV
attr interpolationmode sample-hold
attr source transmissionStateChanged
attr title "tx state, vector"
vector 14 scenario.client3.ppp[2].ppp transmissionState:vector ETV
attr interpolationmode sample-hold
attr source transmissionStateChanged
attr title "tx state, vector"
vector 15 scenario.client3.ppp[3].ppp transmissionState:vector ETV
attr interpolationmode sample-hold
attr source transmissionStateChanged
attr title "tx state, vector"
vector 16 scenario.client4.ppp[0].ppp transmissionState:vector ETV
attr interpolationmode sample-hold
attr source transmissionStateChanged
attr title "tx state, vector"
vector 17 scenario.client4.ppp[1].ppp transmissionState:vector ETV
attr interpolationmode sample-hold
attr source transmissionStateChanged
attr title "tx state, vector"
vector 18 scenario.client4.ppp[2].ppp transmissionState:vector ETV
attr interpolationmode sample-hold
attr source transmissionStateChanged
attr title "tx state, vector"
vector 19 scenario.client4.ppp[3].ppp transmissionState:vector ETV
attr interpolationmode sample-hold
attr source transmissionStateChanged
attr title "tx state, vector"
vector 20 scenario.client2.tcp.conn-25 tcpRcvQueueBytes:vector ETV
attr interpolationmode sample-hold
vector 21 scenario.client2.tcp.conn-25 rcvAdv:vector ETV
attr interpolationmode sample-hold
vector 22 scenario.client2.tcp.conn-25 rcvWnd:vector ETV
attr interpolationmode sample-hold
vector 23 scenario.client2.tcp.conn-25 sndAck:vector ETV
attr interpolationmode sample-hold
vector 24 scenario.client2.ppp[0].ppp rcvdPkFromHl:vector(packetBytes) ETV
attr interpolationmode none
attr source packetReceivedFromUpper
attr title "packets received from higher layer, vector(packetBytes)"
vector 25 scenario.client2.ppp[0].ppp.queue packetPushed:vector(packetBytes) ETV
attr interpolationmode none
attr title "packet pushed, vector(packetBytes)"
vector 26 scenario.client2.ppp[0].ppp.queue queueLength:vector ETV
attr interpolationmode sample-hold
attr source "count(packetPushed) - count(packetPopped) - count(packetRemoved) - count(packetDropped)"
attr title "queue length, vector"
vector 27 scenario.client2.ppp[0].ppp.queue packetPopped:vector(packetBytes) ETV
attr interpolationmode none
attr title "packet popped, vector(packetBytes)"
vector 28 scenario.client2.ppp[0].ppp.queue queueingTime:vector ETV
attr interpolationmode none
attr source queueingTime(packetPopped)
attr title "queueing times, vector"
attr unit s
vector 29 scenario.client2.ppp[0].ppp txPk:vector(packetBytes) ETV
attr interpolationmode none
attr source packetSentToLower
attr title "packets transmitted, vector(packetBytes)"
vector 30 scenario.client0.ppp[1].ppp rxPkOk:vector(packetBytes) ETV
attr interpolationmode none
attr source rxPkOk
attr title "packets received OK, vector(packetBytes)"
vector 31 scenario.client0.ppp[1].ppp passedUpPk:vector(packetBytes) ETV
attr interpolationmode none
attr source packetSentToUpper
attr title "packets passed to higher layer, vector(packetBytes)"
vector 32 scenario.client0.tcp.conn-0 rcvSeq:vector ETV
attr interpolationmode sample-hold
vector 33 scenario.client0.tcp.conn-0 rcvAck:vector ETV
attr interpolationmode sample-hold
vector 34 scenario.client0.tcp.conn-26 rcvAdv:vector ETV
attr interpolationmode sample-hold
vector 35 scenario.client0.tcp.conn-26 sndWnd:vector ETV
attr interpolationmode sample-hold
vector 36 scenario.client0.tcp.conn-26 tcpRcvQueueBytes:vector ETV
attr interpolationmode sample-hold
vector 37 scenario.client0.tcp.conn-26 rcvWnd:vector ETV
attr interpolationmode sample-hold
vector 38 scenario.client0.tcp.conn-26 sndAck:vector ETV
attr interpolationmode sample-hold
vector 39 scenario.client0.ppp[1].ppp rcvdPkFromHl:vector(packetBytes) ETV
attr interpolationmode none
attr source packetReceivedFromUpper
attr title "packets received from higher layer, vector(packetBytes)"
vector 40 scenario.client0.ppp[1].ppp.queue packetPushed:vector(packetBytes) ETV
attr interpolationmode none
attr title "packet pushed, vector(packetBytes)"
vector 41 scenario.client0.ppp[1].ppp.queue queueLength:vector ETV
attr interpolationmode sample-hold
attr source "count(packetPushed) - count(packetPopped) - count(packetRemoved) - count(packetDropped)"
attr title "queue length, vector"
vector 42 scenario.client0.ppp[1].ppp.queue packetPopped:vector(packetBytes) ETV
attr interpolationmode none
attr title "packet popped, vector(packetBytes)"
vector 43 scenario.client0.ppp[1].ppp.queue queueingTime:vector ETV
attr interpolationmode none
attr source queueingTime(packetPopped)
attr title "queueing times, vector"
attr unit s
vector 44 scenario.client0.ppp[1].ppp txPk:vector(packetBytes) ETV
attr interpolationmode none
attr source packetSentToLower
attr title "packets transmitted, vector(packetBytes)"
vector 45 scenario.client2.ppp[0].ppp rxPkOk:vector(packetBytes) ETV
attr interpolationmode none
attr source rxPkOk
attr title "packets received OK, vector(packetBytes)"
vector 46 scenario.client2.ppp[0].ppp passedUpPk:vector(packetBytes) ETV
attr interpolationmode none
attr source packetSentToUpper
attr title "packets passed to higher layer, vector(packetBytes)"
vector 47 scenario.client2.tcp.conn-25 rcvSeq:vector ETV
attr interpolationmode sample-hold
vector 48 scenario.client2.tcp.conn-25 rcvAck:vector ETV
attr interpolationmode sample-hold
vector 49 scenario.client2.tcp.conn-25 sndWnd:vector ETV
attr interpolationmode sample-hold
vector 50 scenario.client2.tcp.conn-25 unacked:vector ETV
attr interpolationmode sample-hold
vector 51 scenario.client0.tcp.conn-26 rcvSeq:vector ETV
attr interpolationmode sample-hold
vector 52 scenario.client0.tcp.conn-26 rcvAck:vector ETV
attr interpolationmode sample-hold
vector 53 scenario.client0.tcp.conn-26 unacked:vector ETV
attr interpolationmode sample-hold
vector 54 scenario.client0.tcp.conn-26 cwnd:vector ETV
attr interpolationmode sample-hold
vector 55 scenario.client0.tcp.conn-26 ssthresh:vector ETV
attr interpolationmode sample-hold
vector 56 scenario.client0.tcp.conn-26 dupAcks:vector ETV
attr interpolationmode sample-hold
vector 57 scenario.client2.tcp.conn-25 rtt:vector ETV
attr interpolationmode sample-hold
vector 58 scenario.client2.tcp.conn-25 srtt:vector ETV
attr interpolationmode sample-hold
vector 59 scenario.client2.tcp.conn-25 rttvar:vector ETV
attr interpolationmode sample-hold
vector 60 scenario.client2.tcp.conn-25 rto:vector ETV
attr interpolationmode sample-hold
vector 61 scenario.client2.tcp.conn-25 cwnd:vector ETV
attr interpolationmode sample-hold
vector 62 scenario.client2.tcp.conn-25 ssthresh:vector ETV
attr interpolationmode sample-hold
vector 63 scenario.client2.tcp.conn-25 dupAcks:vector ETV
attr interpolationmode sample-hold
vector 64 scenario.client0.tcp.conn-27 tcpRcvQueueBytes:vector ETV
attr interpolationmode sample-hold
vector 65 scenario.client0.tcp.conn-27 rcvAdv:vector ETV
attr interpolationmode sample-hold
vector 66 scenario.client0.tcp.conn-27 rcvWnd:vector ETV
attr interpolationmode sample-hold
vector 67 scenario.client0.tcp.conn-27 sndAck:vector ETV
attr interpolationmode sample-hold
vector 68 scenario.client0.ppp[0].ppp rcvdPkFromHl:vector(packetBytes) ETV
attr interpolationmode none
attr source packetReceivedFromUpper
attr title "packets received from higher layer, vector(packetBytes)"
vector 69 scenario.client0.ppp[0].ppp.queue packetPushed:vector(packetBytes) ETV
attr interpolationmode none
attr title "packet pushed, vector(packetBytes)"
vector 70 scenario.client0.ppp[0].ppp.queue queueLength:vector ETV
attr interpolationmode sample-hold
attr source "count(packetPushed) - count(packetPopped) - count(packetRemoved) - count(packetDropped)"
attr title "queue length, vector"
vector 71 scenario.client0.ppp[0].ppp.queue packetPopped:vector(packetBytes) ETV
attr interpolationmode none
attr title "packet popped, vector(packetBytes)"
vector 72 scenario.client0.ppp[0].ppp.queue queueingTime:vector ETV
attr interpolationmode none
attr source queueingTime(packetPopped)
attr title "queueing times, vector"
attr unit s
vector 73 scenario.client0.ppp[0].ppp txPk:vector(packetBytes) ETV
attr interpolationmode none
attr source packetSentToLower
attr title "packets transmitted, vector(packetBytes)"
vector 74 scenario.client1.ppp[0].ppp rxPkOk:vector(packetBytes) ETV
attr interpolationmode none
attr source rxPkOk
attr title "packets received OK, vector(packetBytes)"
vector 75 scenario.client1.ppp[0].ppp passedUpPk:vector(packetBytes) ETV
attr interpolationmode none
attr source packetSentToUpper
attr title "packets passed to higher layer, vector(packetBytes)"
vector 76 scenario.client1.tcp.conn-1 rcvSeq:vector ETV
attr interpolationmode sample-hold
vector 77 scenario.client1.tcp.conn-1 rcvAck:vector ETV
attr interpolationmode sample-hold
vector 78 scenario.client1.tcp.conn-28 rcvAdv:vector ETV
attr interpolationmode sample-hold
vector 79 scenario.client1.tcp.conn-28 sndWnd:vector ETV
attr interpolationmode sample-hold
vector 80 scenario.client1.tcp.conn-28 tcpRcvQueueBytes:vector ETV
attr interpolationmode sample-hold
vector 81 scenario.client1.tcp.conn-28 rcvWnd:vector ETV
attr interpolationmode sample-hold
vector 82 scenario.client1.tcp.conn-28 sndAck:vector ETV
attr interpolationmode sample-hold
vector 83 scenario.client1.ppp[0].ppp rcvdPkFromHl:vector(packetBytes) ETV
attr interpolationmode none
attr source packetReceivedFromUpper
attr title "packets received from higher layer, vector(packetBytes)"
vector 84 scenario.client1.ppp[0].ppp.queue packetPushed:vector(packetBytes) ETV
attr interpolationmode none
attr title "packet pushed, vector(packetBytes)"
vector 85 scenario.client1.ppp[0].ppp.queue queueLength:vector ETV
attr interpolationmode sample-hold
attr source "count(packetPushed) - count(packetPopped) - count(packetRemoved) - count(packetDropped)"
attr title "queue length, vector"
vector 86 scenario.client1.ppp[0].ppp.queue packetPopped:vector(packetBytes) ETV
attr interpolationmode none
attr title "packet popped, vector(packetBytes)"
vector 87 scenario.client1.ppp[0].ppp.queue queueingTime:vector ETV
attr interpolationmode none
attr source queueingTime(packetPopped)
attr title "queueing times, vector"
attr unit s
vector 88 scenario.client1.ppp[0].ppp txPk:vector(packetBytes) ETV
attr interpolationmode none
attr source packetSentToLower
attr title "packets transmitted, vector(packetBytes)"
vector 89 scenario.client0.ppp[0].ppp rxPkOk:vector(packetBytes) ETV
attr interpolationmode none
attr source rxPkOk
attr title "packets received OK, vector(packetBytes)"
vector 90 scenario.client0.ppp[0].ppp passedUpPk:vector(packetBytes) ETV
attr interpolationmode none
attr source packetSentToUpper
attr title "packets passed to higher layer, vector(packetBytes)"
vector 91 scenario.client0.tcp.conn-27 rcvSeq:vector ETV
attr interpolationmode sample-hold
vector 92 scenario.client0.tcp.conn-27 rcvAck:vector ETV
attr interpolationmode sample-hold
vector 93 scenario.client0.tcp.conn-27 sndWnd:vector ETV
attr interpolationmode sample-hold
vector 94 scenario.client0.tcp.conn-27 unacked:vector ETV
attr interpolationmode sample-hold
vector 95 scenario.client1.tcp.conn-28 rcvSeq:vector ETV
attr interpolationmode sample-hold
vector 96 scenario.client1.tcp.conn-28 rcvAck:vector ETV
attr interpolationmode sample-hold
vector 97 scenario.client1.tcp.conn-28 unacked:vector ETV
attr interpolationmode sample-hold
vector 98 scenario.client1.tcp.conn-28 cwnd:vector ETV
attr interpolationmode sample-hold
vector 99 scenario.client1.tcp.conn-28 ssthresh:vector ETV
attr interpolationmode sample-hold
vector 100 scenario.client1.tcp.conn-28 dupAcks:vector ETV
attr interpolationmode sample-hold
vector 101 scenario.client0.tcp.conn-27 rtt:vector ETV
attr interpolationmode sample-hold
vector 102 scenario.client0.tcp.conn-27 srtt:vector ETV
attr interpolationmode sample-hold
vector 103 scenario.client0.tcp.conn-27 rttvar:vector ETV
attr interpolationmode sample-hold
vector 104 scenario.client0.tcp.conn-27 rto:vector ETV
attr interpolationmode sample-hold
vector 105 scenario.client0.tcp.conn-27 cwnd:vector ETV
attr interpolationmode sample-hold
vector 106 scenario.client0.tcp.conn-27 ssthresh:vector ETV
attr interpolationmode sample-hold
vector 107 scenario.client0.tcp.conn-27 dupAcks:vector ETV
attr interpolationmode sample-hold
vector 108 scenario.client2.tcp.conn-29 tcpRcvQueueBytes:vector ETV
attr interpolationmode sample-hold
vector 109 scenario.client2.tcp.conn-29 rcvAdv:vector ETV
attr interpolationmode sample-hold
vector 110 scenario.client2.tcp.conn-29 rcvWnd:vector ETV
attr interpolationmode sample-hold
vector 111 scenario.client2.tcp.conn-29 sndAck:vector ETV
attr interpolationmode sample-hold
vector 112 scenario.client2.ppp[1].ppp rcvdPkFromHl:vector(packetBytes) ETV
attr interpolationmode none
attr source packetReceivedFromUpper
attr title "packets received from higher layer, vector(packetBytes)"
vector 113 scenario.client2.ppp[1].ppp.queue packetPushed:vector(packetBytes) ETV
attr interpolationmode none
attr title "packet pushed, vector(packetBytes)"
vector 114 scenario.client2.ppp[1].ppp.queue queueLength:vector ETV
attr interpolationmode sample-hold
attr source "count(packetPushed) - count(packetPopped) - count(packetRemoved) - count(packetDropped)"
attr title "queue length, vector"
vector 115 scenario.client2.ppp[1].ppp.queue packetPopped:vector(packetBytes) ETV
attr interpolationmode none
attr title "packet popped, vector(packetBytes)"
vector 116 scenario.client2.ppp[1].ppp.queue queueingTime:vector ETV
attr interpolationmode none
attr source queueingTime(packetPopped)
attr title "queueing times, vector"
attr unit s
vector 117 scenario.client2.ppp[1].ppp txPk:vector(packetBytes) ETV
attr interpolationmode none
attr source packetSentToLower
attr title "packets transmitted, vector(packetBytes)"
vector 118 scenario.client1.ppp[1].ppp rxPkOk:vector(packetBytes) ETV
attr interpolationmode none
attr source rxPkOk
attr title "packets received OK, vector(packetBytes)"
vector 119 scenario.client1.ppp[1].ppp passedUpPk:vector(packetBytes) ETV
attr interpolationmode none
attr source packetSentToUpper
attr title "packets passed to higher layer, vector(packetBytes)"
vector 120 scenario.client1.tcp.conn-30 rcvAdv:vector ETV
attr interpolationmode sample-hold
vector 121 scenario.client1.tcp.conn-30 sndWnd:vector ETV
attr interpolationmode sample-hold
vector 122 scenario.client1.tcp.conn-30 tcpRcvQueueBytes:vector ETV
attr interpolationmode sample-hold
vector 123 scenario.client1.tcp.conn-30 rcvWnd:vector ETV
attr interpolationmode sample-hold
vector 124 scenario.client1.tcp.conn-30 sndAck:vector ETV
attr interpolationmode sample-hold
vector 125 scenario.client1.ppp[1].ppp rcvdPkFromHl:vector(packetBytes) ETV
attr interpolationmode none
attr source packetReceivedFromUpper
attr title "packets received from higher layer, vector(packetBytes)"
vector 126 scenario.client1.ppp[1].ppp.queue packetPushed:vector(packetBytes) ETV
attr interpolationmode none
attr title "packet pushed, vector(packetBytes)"
vector 127 scenario.client1.ppp[1].ppp.queue queueLength:vector ETV
attr interpolationmode sample-hold
attr source "count(packetPushed) - count(packetPopped) - count(packetRemoved) - count(packetDropped)"
attr title "queue length, vector"
vector 128 scenario.client1.ppp[1].ppp.queue packetPopped:vector(packetBytes) ETV
attr interpolationmode none
attr title "packet popped, vector(packetBytes)"
vector 129 scenario.client1.ppp[1].ppp.queue queueingTime:vector ETV
attr interpolationmode none
attr source queueingTime(packetPopped)
attr title "queueing times, vector"
attr unit s
vector 130 scenario.client1.ppp[1].ppp txPk:vector(packetBytes) ETV
attr interpolationmode none
attr source packetSentToLower
attr title "packets transmitted, vector(packetBytes)"
vector 131 scenario.client2.ppp[1].ppp rxPkOk:vector(packetBytes) ETV
attr interpolationmode none
attr source rxPkOk
attr title "packets received OK, vector(packetBytes)"
vector 132 scenario.client2.ppp[1].ppp passedUpPk:vector(packetBytes) ETV
attr interpolationmode none
attr source packetSentToUpper
attr title "packets passed to higher layer, vector(packetBytes)"
vector 133 scenario.client2.tcp.conn-29 rcvSeq:vector ETV
attr interpolationmode sample-hold
vector 134 scenario.client2.tcp.conn-29 rcvAck:vector ETV
attr interpolationmode sample-hold
vector 135 scenario.client2.tcp.conn-29 sndWnd:vector ETV
attr interpolationmode sample-hold
vector 136 scenario.client2.tcp.conn-29 unacked:vector ETV
attr interpolationmode sample-hold
vector 137 scenario.client1.tcp.conn-30 rcvSeq:vector ETV
attr interpolationmode sample-hold
vector 138 scenario.client1.tcp.conn-30 rcvAck:vector ETV
attr interpolationmode sample-hold
vector 139 scenario.client1.tcp.conn-30 unacked:vector ETV
attr interpolationmode sample-hold
vector 140 scenario.client1.tcp.conn-30 cwnd:vector ETV
attr interpolationmode sample-hold
vector 141 scenario.client1.tcp.conn-30 ssthresh:vector ETV
attr interpolationmode sample-hold
vector 142 scenario.client1.tcp.conn-30 dupAcks:vector ETV
attr interpolationmode sample-hold
vector 143 scenario.client2.tcp.conn-29 rtt:vector ETV
attr interpolationmode sample-hold
vector 144 scenario.client2.tcp.conn-29 srtt:vector ETV
attr interpolationmode sample-hold
vector 145 scenario.client2.tcp.conn-29 rttvar:vector ETV
attr interpolationmode sample-hold
vector 146 scenario.client2.tcp.conn-29 rto:vector ETV
attr interpolationmode sample-hold
vector 147 scenario.client2.tcp.conn-29 cwnd:vector ETV
attr interpolationmode sample-hold
vector 148 scenario.client2.tcp.conn-29 ssthresh:vector ETV
attr interpolationmode sample-hold
vector 149 scenario.client2.tcp.conn-29 dupAcks:vector ETV
attr interpolationmode sample-hold
vector 150 scenario.client1.tcp.conn-31 tcpRcvQueueBytes:vector ETV
attr interpolationmode sample-hold
vector 151 scenario.client1.tcp.conn-31 rcvAdv:vector ETV
attr interpolationmode sample-hold
vector 152 scenario.client1.tcp.conn-31 rcvWnd:vector ETV
attr interpolationmode sample-hold
vector 153 scenario.client1.tcp.conn-31 sndAck:vector ETV
attr interpolationmode sample-hold
vector 154 scenario.client1.ppp[2].ppp rcvdPkFromHl:vector(packetBytes) ETV
attr interpolationmode none
attr source packetReceivedFromUpper
attr title "packets received from higher layer, vector(packetBytes)"
vector 155 scenario.client1.ppp[2].ppp.queue packetPushed:vector(packetBytes) ETV
attr interpolationmode none
attr title "packet pushed, vector(packetBytes)"
vector 156 scenario.client1.ppp[2].ppp.queue queueLength:vector ETV
attr interpolationmode sample-hold
attr source "count(packetPushed) - count(packetPopped) - count(packetRemoved) - count(packetDropped)"
attr title "queue length, vector"
vector 157 scenario.client1.ppp[2].ppp.queue packetPopped:vector(packetBytes) ETV
attr interpolationmode none
attr title "packet popped, vector(packetBytes)"
vector 158 scenario.client1.ppp[2].ppp.queue queueingTime:vector ETV
attr interpolationmode none
attr source queueingTime(packetPopped)
attr title "queueing times, vector"
attr unit s
vector 159 scenario.client1.ppp[2].ppp txPk:vector(packetBytes) ETV
attr interpolationmode none
attr source packetSentToLower
attr title "packets transmitted, vector(packetBytes)"
vector 160 scenario.client3.ppp[1].ppp rxPkOk:vector(packetBytes) ETV
attr interpolationmode none
attr source rxPkOk
attr title "packets received OK, vector(packetBytes)"
vector 161 scenario.client3.ppp[1].ppp passedUpPk:vector(packetBytes) ETV
attr interpolationmode none
attr source packetSentToUpper
attr title "packets passed to higher layer, vector(packetBytes)"
vector 162 scenario.client3.tcp.conn-3 rcvSeq:vector ETV
attr interpolationmode sample-hold
vector 163 scenario.client3.tcp.conn-3 rcvAck:vector ETV
attr interpolationmode sample-hold
vector 164 scenario.client3.tcp.conn-32 rcvAdv:vector ETV
attr interpolationmode sample-hold
vector 165 scenario.client3.tcp.conn-32 sndWnd:vector ETV
attr interpolationmode sample-hold
vector 166 scenario.client3.tcp.conn-32 tcpRcvQueueBytes:vector ETV
attr interpolationmode sample-hold
vector 167 scenario.client3.tcp.conn-32 rcvWnd:vector ETV
attr interpolationmode sample-hold
vector 168 scenario.client3.tcp.conn-32 sndAck:vector ETV
attr interpolationmode sample-hold
vector 169 scenario.client3.ppp[1].ppp rcvdPkFromHl:vector(packetBytes) ETV
attr interpolationmode none
attr source packetReceivedFromUpper
attr title "packets received from higher layer, vector(packetBytes)"
vector 170 scenario.client3.ppp[1].ppp.queue packetPushed:vector(packetBytes) ETV
attr interpolationmode none
attr title "packet pushed, vector(packetBytes)"
vector 171 scenario.client3.ppp[1].ppp.queue queueLength:vector ETV
attr interpolationmode sample-hold
attr source "count(packetPushed) - count(packetPopped) - count(packetRemoved) - count(packetDropped)"
attr title "queue length, vector"
vector 172 scenario.client3.ppp[1].ppp.queue packetPopped:vector(packetBytes) ETV
attr interpolationmode none
attr title "packet popped, vector(packetBytes)"
vector 173 scenario.client3.ppp[1].ppp.queue queueingTime:vector ETV
attr interpolationmode none
attr source queueingTime(packetPopped)
attr title "queueing times, vector"
attr unit s
vector 174 scenario.client3.ppp[1].ppp txPk:vector(packetBytes) ETV
attr interpolationmode none
attr source packetSentToLower
attr title "packets transmitted, vector(packetBytes)"
vector 175 scenario.client1.ppp[2].ppp rxPkOk:vector(packetBytes) ETV
attr interpolationmode none
attr source rxPkOk
attr title "packets received OK, vector(packetBytes)"
vector 176 scenario.client1.ppp[2].ppp passedUpPk:vector(packetBytes) ETV
attr interpolationmode none
attr source packetSentToUpper
attr title "packets passed to higher layer, vector(packetBytes)"
vector 177 scenario.client1.tcp.conn-31 rcvSeq:vector ETV
attr interpolationmode sample-hold
vector 178 scenario.client1.tcp.conn-31 rcvAck:vector ETV
attr interpolationmode sample-hold
vector 179 scenario.client1.tcp.conn-31 sndWnd:vector ETV
attr interpolationmode sample-hold
vector 180 scenario.client1.tcp.conn-31 unacked:vector ETV
attr interpolationmode sample-hold
vector 181 scenario.client3.tcp.conn-32 rcvSeq:vector ETV
attr interpolationmode sample-hold
vector 182 scenario.client3.tcp.conn-32 rcvAck:vector ETV
attr interpolationmode sample-hold
vector 183 scenario.client3.tcp.conn-32 unacked:vector ETV
attr interpolationmode sample-hold
vector 184 scenario.client3.tcp.conn-32 cwnd:vector ETV
attr interpolationmode sample-hold
vector 185 scenario.client3.tcp.conn-32 ssthresh:vector ETV
attr interpolationmode sample-hold
vector 186 scenario.client3.tcp.conn-32 dupAcks:vector ETV
attr interpolationmode sample-hold
vector 187 scenario.client1.tcp.conn-31 rtt:vector ETV
attr interpolationmode sample-hold
vector 188 scenario.client1.tcp.conn-31 srtt:vector ETV
attr interpolationmode sample-hold
vector 189 scenario.client1.tcp.conn-31 rttvar:vector ETV
attr interpolationmode sample-hold
vector 190 scenario.client1.tcp.conn-31 rto:vector ETV
attr interpolationmode sample-hold
vector 191 scenario.client1.tcp.conn-31 cwnd:vector ETV
attr interpolationmode sample-hold
vector 192 scenario.client1.tcp.conn-31 ssthresh:vector ETV
attr interpolationmode sample-hold
vector 193 scenario.client1.tcp.conn-31 dupAcks:vector ETV
attr interpolationmode sample-hold
vector 194 scenario.client1.tcp.conn-33 tcpRcvQueueBytes:vector ETV
attr interpolationmode sample-hold
vector 195 scenario.client1.tcp.conn-33 rcvAdv:vector ETV
attr interpolationmode sample-hold
vector 196 scenario.client1.tcp.conn-33 rcvWnd:vector ETV
attr interpolationmode sample-hold
vector 197 scenario.client1.tcp.conn-33 sndAck:vector ETV
attr interpolationmode sample-hold
vector 198 scenario.client2.tcp.conn-2 rcvSeq:vector ETV
attr interpolationmode sample-hold
vector 199 scenario.client2.tcp.conn-2 rcvAck:vector ETV
attr interpolationmode sample-hold
vector 200 scenario.client2.tcp.conn-34 rcvAdv:vector ETV
attr interpolationmode sample-hold
vector 201 scenario.client2.tcp.conn-34 sndWnd:vector ETV
attr interpolationmode sample-hold
vector 202 scenario.client2.tcp.conn-34 tcpRcvQueueBytes:vector ETV
attr interpolationmode sample-hold
vector 203 scenario.client2.tcp.conn-34 rcvWnd:vector ETV
attr interpolationmode sample-hold
vector 204 scenario.client2.tcp.conn-34 sndAck:vector ETV
attr interpolationmode sample-hold
vector 205 scenario.client1.tcp.conn-33 rcvSeq:vector ETV
attr interpolationmode sample-hold
vector 206 scenario.client1.tcp.conn-33 rcvAck:vector ETV
attr interpolationmode sample-hold
vector 207 scenario.client1.tcp.conn-33 sndWnd:vector ETV
attr interpolationmode sample-hold
vector 208 scenario.client1.tcp.conn-33 unacked:vector ETV
attr interpolationmode sample-hold
vector 209 scenario.client2.tcp.conn-34 rcvSeq:vector ETV
attr interpolationmode sample-hold
vector 210 scenario.client2.tcp.conn-34 rcvAck:vector ETV
attr interpolationmode sample-hold
vector 211 scenario.client2.tcp.conn-34 unacked:vector ETV
attr interpolationmode sample-hold
vector 212 scenario.client2.tcp.conn-34 cwnd:vector ETV
attr interpolationmode sample-hold
vector 213 scenario.client2.tcp.conn-34 ssthresh:vector ETV
attr interpolationmode sample-hold
vector 214 scenario.client2.tcp.conn-34 dupAcks:vector ETV
attr interpolationmode sample-hold
vector 215 scenario.client1.tcp.conn-33 rtt:vector ETV
attr interpolationmode sample-hold
vector 216 scenario.client1.tcp.conn-33 srtt:vector ETV
attr interpolationmode sample-hold
vector 217 scenario.client1.tcp.conn-33 rttvar:vector ETV
attr interpolationmode sample-hold
vector 218 scenario.client1.tcp.conn-33 rto:vector ETV
attr interpolationmode sample-hold
vector 219 scenario.client1.tcp.conn-33 cwnd:vector ETV
attr interpolationmode sample-hold
vector 220 scenario.client1.tcp.conn-33 ssthresh:vector ETV
attr interpolationmode sample-hold
vector 221 scenario.client1.tcp.conn-33 dupAcks:vector ETV
attr interpolationmode sample-hold
vector 222 scenario.client1.tcp.conn-35 tcpRcvQueueBytes:vector ETV
attr interpolationmode sample-hold
vector 223 scenario.client1.tcp.conn-35 rcvAdv:vector ETV
attr interpolationmode sample-hold
vector 224 scenario.client1.tcp.conn-35 rcvWnd:vector ETV
attr interpolationmode sample-hold
vector 225 scenario.client1.tcp.conn-35 sndAck:vector ETV
attr interpolationmode sample-hold
vector 226 scenario.client0.tcp.conn-36 rcvAdv:vector ETV
attr interpolationmode sample-hold
vector 227 scenario.client0.tcp.conn-36 sndWnd:vector ETV
attr interpolationmode sample-hold
vector 228 scenario.client0.tcp.conn-36 tcpRcvQueueBytes:vector ETV
attr interpolationmode sample-hold
vector 229 scenario.client0.tcp.conn-36 rcvWnd:vector ETV
attr interpolationmode sample-hold
vector 230 scenario.client0.tcp.conn-36 sndAck:vector ETV
attr interpolationmode sample-hold
vector 231 scenario.client1.tcp.conn-35 rcvSeq:vector ETV
attr interpolationmode sample-hold
vector 232 scenario.client1.tcp.conn-35 rcvAck:vector ETV
attr interpolationmode sample-hold
vector 233 scenario.client1.tcp.conn-35 sndWnd:vector ETV
attr interpolationmode sample-hold
vector 234 scenario.client1.tcp.conn-35 unacked:vector ETV
attr interpolationmode sample-hold
vector 235 scenario.client0.tcp.conn-36 rcvSeq:vector ETV
attr interpolationmode sample-hold
vector 236 scenario.client0.tcp.conn-36 rcvAck:vector ETV
attr interpolationmode sample-hold
vector 237 scenario.client0.tcp.conn-36 unacked:vector ETV
attr interpolationmode sample-hold
vector 238 scenario.client0.tcp.conn-36 cwnd:vector ETV
attr interpolationmode sample-hold
vector 239 scenario.client0.tcp.conn-36 ssthresh:vector ETV
attr interpolationmode sample-hold
vector 240 scenario.client0.tcp.conn-36 dupAcks:vector ETV
attr interpolationmode sample-hold
vector 241 scenario.client1.tcp.conn-35 rtt:vector ETV
attr interpolationmode sample-hold
vector 242 scenario.client1.tcp.conn-35 srtt:vector ETV
attr interpolationmode sample-hold
vector 243 scenario.client1.tcp.conn-35 rttvar:vector ETV
attr interpolationmode sample-hold
vector 244 scenario.client1.tcp.conn-35 rto:vector ETV
attr interpolationmode sample-hold
vector 245 scenario.client1.tcp.conn-35 cwnd:vector ETV
attr interpolationmode sample-hold
vector 246 scenario.client1.tcp.conn-35 ssthresh:vector ETV
attr interpolationmode sample-hold
vector 247 scenario.client1.tcp.conn-35 dupAcks:vector ETV
attr interpolationmode sample-hold
vector 248 scenario.client2.tcp.conn-37 tcpRcvQueueBytes:vector ETV
attr interpolationmode sample-hold
vector 249 scenario.client2.tcp.conn-37 rcvAdv:vector ETV
attr interpolationmode sample-hold
vector 250 scenario.client2.tcp.conn-37 rcvWnd:vector ETV
attr interpolationmode sample-hold
vector 251 scenario.client2.tcp.conn-37 sndAck:vector ETV
attr interpolationmode sample-hold
vector 252 scenario.client2.ppp[2].ppp rcvdPkFromHl:vector(packetBytes) ETV
attr interpolationmode none
attr source packetReceivedFromUpper
attr title "packets received from higher layer, vector(packetBytes)"
vector 253 scenario.client2.ppp[2].ppp.queue packetPushed:vector(packetBytes) ETV
attr interpolationmode none
attr title "packet pushed, vector(packetBytes)"
vector 254 scenario.client2.ppp[2].ppp.queue queueLength:vector ETV
attr interpolationmode sample-hold
attr source "count(packetPushed) - count(packetPopped) - count(packetRemoved) - count(packetDropped)"
attr title "queue length, vector"
vector 255 scenario.client2.ppp[2].ppp.queue packetPopped:vector(packetBytes) ETV
attr interpolationmode none
attr title "packet popped, vector(packetBytes)"
vector 256 scenario.client2.ppp[2].ppp.queue queueingTime:vector ETV
attr interpolationmode none
attr source queueingTime(packetPopped)
attr title "queueing times, vector"
attr unit s
vector 257 scenario.client2.ppp[2].ppp txPk:vector(packetBytes) ETV
attr interpolationmode none
attr source packetSentToLower
attr title "packets transmitted, vector(packetBytes)"
vector 258 scenario.client3.ppp[2].ppp rxPkOk:vector(packetBytes) ETV
attr interpolationmode none
attr source rxPkOk
attr title "packets received OK, vector(packetBytes)"
vector 259 scenario.client3.ppp[2].ppp passedUpPk:vector(packetBytes) ETV
attr interpolationmode none
attr source packetSentToUpper
attr title "packets passed to higher layer, vector(packetBytes)"
vector 260 scenario.client3.tcp.conn-38 rcvAdv:vector ETV
attr interpolationmode sample-hold
vector 261 scenario.client3.tcp.conn-38 sndWnd:vector ETV
attr interpolationmode sample-hold
vector 262 scenario.client3.tcp.conn-38 tcpRcvQueueBytes:vector ETV
attr interpolationmode sample-hold
vector 263 scenario.client3.tcp.conn-38 rcvWnd:vector ETV
attr interpolationmode sample-hold
vector 264 scenario.client3.tcp.conn-38 sndAck:vector ETV
attr interpolationmode sample-hold
vector 265 scenario.client3.ppp[2].ppp rcvdPkFromHl:vector(packetBytes) ETV
attr interpolationmode none
attr source packetReceivedFromUpper
attr title "packets received from higher layer, vector(packetBytes)"
vector 266 scenario.client3.ppp[2].ppp.queue packetPushed:vector(packetBytes) ETV
attr interpolationmode none
attr title "packet pushed, vector(packetBytes)"
vector 267 scenario.client3.ppp[2].ppp.queue queueLength:vector ETV
attr interpolationmode sample-hold
attr source "count(packetPushed) - count(packetPopped) - count(packetRemoved) - count(packetDropped)"
attr title "queue length, vector"
vector 268 scenario.client3.ppp[2].ppp.queue packetPopped:vector(packetBytes) ETV
attr interpolationmode none
attr title "packet popped, vector(packetBytes)"
vector 269 scenario.client3.ppp[2].ppp.queue queueingTime:vector ETV
attr interpolationmode none
attr source queueingTime(packetPopped)
attr title "queueing times, vector"
attr unit s
vector 270 scenario.client3.ppp[2].ppp txPk:vector(packetBytes) ETV
attr interpolationmode none
attr source packetSentToLower
attr title "packets transmitted, vector(packetBytes)"
vector 271 scenario.client2.ppp[2].ppp rxPkOk:vector(packetBytes) ETV
attr interpolationmode none
attr source rxPkOk
attr title "packets received OK, vector(packetBytes)"
vector 272 scenario.client2.ppp[2].ppp passedUpPk:vector(packetBytes) ETV
attr interpolationmode none
attr source packetSentToUpper
attr title "packets passed to higher layer, vector(packetBytes)"
vector 273 scenario.client2.tcp.conn-37 rcvSeq:vector ETV
attr interpolationmode sample-hold
vector 274 scenario.client2.tcp.conn-37 rcvAck:vector ETV
attr interpolationmode sample-hold
vector 275 scenario.client2.tcp.conn-37 sndWnd:vector ETV
attr interpolationmode sample-hold
vector 276 scenario.client2.tcp.conn-37 unacked:vector ETV
attr interpolationmode sample-hold
vector 277 scenario.client3.tcp.conn-38 rcvSeq:vector ETV
attr interpolationmode sample-hold
vector 278 scenario.client3.tcp.conn-38 rcvAck:vector ETV
attr interpolationmode sample-hold
vector 279 scenario.client3.tcp.conn-38 unacked:vector ETV
attr interpolationmode sample-hold
vector 280 scenario.client3.tcp.conn-38 cwnd:vector ETV
attr interpolationmode sample-hold
vector 281 scenario.client3.tcp.conn-38 ssthresh:vector ETV
attr interpolationmode sample-hold
vector 282 scenario.client3.tcp.conn-38 dupAcks:vector ETV
attr interpolationmode sample-hold
vector 283 scenario.client2.tcp.conn-37 rtt:vector ETV
attr interpolationmode sample-hold
vector 284 scenario.client2.tcp.conn-37 srtt:vector ETV
attr interpolationmode sample-hold
vector 285 scenario.client2.tcp.conn-37 rttvar:vector ETV
attr interpolationmode sample-hold
vector 286 scenario.client2.tcp.conn-37 rto:vector ETV
attr interpolationmode sample-hold
vector 287 scenario.client2.tcp.conn-37 cwnd:vector ETV
attr interpolationmode sample-hold
vector 288 scenario.client2.tcp.conn-37 ssthresh:vector ETV
attr interpolationmode sample-hold
vector 289 scenario.client2.tcp.conn-37 dupAcks:vector ETV
attr interpolationmode sample-hold
vector 290 scenario.client0.tcp.conn-39 tcpRcvQueueBytes:vector ETV
attr interpolationmode sample-hold
vector 291 scenario.client0.tcp.conn-39 rcvAdv:vector ETV
attr interpolationmode sample-hold
vector 292 scenario.client0.tcp.conn-39 rcvWnd:vector ETV
attr interpolationmode sample-hold
vector 293 scenario.client0.tcp.conn-39 sndAck:vector ETV
attr interpolationmode sample-hold
vector 294 scenario.client2.tcp.conn-40 rcvAdv:vector ETV
attr interpolationmode sample-hold
vector 295 scenario.client2.tcp.conn-40 sndWnd:vector ETV
attr interpolationmode sample-hold
vector 296 scenario.client2.tcp.conn-40 tcpRcvQueueBytes:vector ETV
attr interpolationmode sample-hold
vector 297 scenario.client2.tcp.conn-40 rcvWnd:vector ETV
attr interpolationmode sample-hold
vector 298 scenario.client2.tcp.conn-40 sndAck:vector ETV
attr interpolationmode sample-hold
vector 299 scenario.client0.tcp.conn-39 rcvSeq:vector ETV
attr interpolationmode sample-hold
vector 300 scenario.client0.tcp.conn-39 rcvAck:vector ETV
attr interpolationmode sample-hold
vector 301 scenario.client0.tcp.conn-39 sndWnd:vector ETV
attr interpolationmode sample-hold
vector 302 scenario.client0.tcp.conn-39 unacked:vector ETV
attr interpolationmode sample-hold
vector 303 scenario.client2.tcp.conn-40 rcvSeq:vector ETV
attr interpolationmode sample-hold
vector 304 scenario.client2.tcp.conn-40 rcvAck:vector ETV
attr interpolationmode sample-hold
vector 305 scenario.client2.tcp.conn-40 unacked:vector ETV
attr interpolationmode sample-hold
vector 306 scenario.client2.tcp.conn-40 cwnd:vector ETV
attr interpolationmode sample-hold
vector 307 scenario.client2.tcp.conn-40 ssthresh:vector ETV
attr interpolationmode sample-hold
vector 308 scenario.client2.tcp.conn-40 dupAcks:vector ETV
attr interpolationmode sample-hold
vector 309 scenario.client0.tcp.conn-39 rtt:vector ETV
attr interpolationmode sample-hold
vector 310 scenario.client0.tcp.conn-39 srtt:vector ETV
attr interpolationmode sample-hold
vector 311 scenario.client0.tcp.conn-39 rttvar:vector ETV
attr interpolationmode sample-hold
vector 312 scenario.client0.tcp.conn-39 rto:vector ETV
attr interpolationmode sample-hold
vector 313 scenario.client0.tcp.conn-39 cwnd:vector ETV
attr interpolationmode sample-hold
vector 314 scenario.client0.tcp.conn-39 ssthresh:vector ETV
attr interpolationmode sample-hold
vector 315 scenario.client0.tcp.conn-39 dupAcks:vector ETV
attr interpolationmode sample-hold
vector 316 scenario.client3.tcp.conn-41 tcpRcvQueueBytes:vector ETV
attr interpolationmode sample-hold
vector 317 scenario.client3.tcp.conn-41 rcvAdv:vector ETV
attr interpolationmode sample-hold
vector 318 scenario.client3.tcp.conn-41 rcvWnd:vector ETV
attr interpolationmode sample-hold
vector 319 scenario.client3.tcp.conn-41 sndAck:vector ETV
attr interpolationmode sample-hold
vector 320 scenario.client3.ppp[0].ppp rcvdPkFromHl:vector(packetBytes) ETV
attr interpolationmode none
attr source packetReceivedFromUpper
attr title "packets received from higher layer, vector(packetBytes)"
vector 321 scenario.client3.ppp[0].ppp.queue packetPushed:vector(packetBytes) ETV
attr interpolationmode none
attr title "packet pushed, vector(packetBytes)"
vector 322 scenario.client3.ppp[0].ppp.queue queueLength:vector ETV
attr interpolationmode sample-hold
attr source "count(packetPushed) - count(packetPopped) - count(packetRemoved) - count(packetDropped)"
attr title "queue length, vector"
vector 323 scenario.client3.ppp[0].ppp.queue packetPopped:vector(packetBytes) ETV
attr interpolationmode none
attr title "packet popped, vector(packetBytes)"
vector 324 scenario.client3.ppp[0].ppp.queue queueingTime:vector ETV
attr interpolationmode none
attr source queueingTime(packetPopped)
attr title "queueing times, vector"
attr unit s
vector 325 scenario.client3.ppp[0].ppp txPk:vector(packetBytes) ETV
attr interpolationmode none
attr source packetSentToLower
attr title "packets transmitted, vector(packetBytes)"
vector 326 scenario.client0.ppp[2].ppp rxPkOk:vector(packetBytes) ETV
attr interpolationmode none
attr source rxPkOk
attr title "packets received OK, vector(packetBytes)"
vector 327 scenario.client0.ppp[2].ppp passedUpPk:vector(packetBytes) ETV
attr interpolationmode none
attr source packetSentToUpper
attr title "packets passed to higher layer, vector(packetBytes)"
vector 328 scenario.client0.tcp.conn-42 rcvAdv:vector ETV
attr interpolationmode sample-hold
vector 329 scenario.client0.tcp.conn-42 sndWnd:vector ETV
attr interpolationmode sample-hold
vector 330 scenario.client0.tcp.conn-42 tcpRcvQueueBytes:vector ETV
attr interpolationmode sample-hold
vector 331 scenario.client0.tcp.conn-42 rcvWnd:vector ETV
attr interpolationmode sample-hold
vector 332 scenario.client0.tcp.conn-42 sndAck:vector ETV
attr interpolationmode sample-hold
vector 333 scenario.client0.ppp[2].ppp rcvdPkFromHl:vector(packetBytes) ETV
attr interpolationmode none
attr source packetReceivedFromUpper
attr title "packets received from higher layer, vector(packetBytes)"
vector 334 scenario.client0.ppp[2].ppp.queue packetPushed:vector(packetBytes) ETV
attr interpolationmode none
attr title "packet pushed, vector(packetBytes)"
vector 335 scenario.client0.ppp[2].ppp.queue queueLength:vector ETV
attr interpolationmode sample-hold
attr source "count(packetPushed) - count(packetPopped) - count(packetRemoved) - count(packetDropped)"
attr title "queue length, vector"
vector 336 scenario.client0.ppp[2].ppp.queue packetPopped:vector(packetBytes) ETV
attr interpolationmode none
attr title "packet popped, vector(packetBytes)"
vector 337 scenario.client0.ppp[2].ppp.queue queueingTime:vector ETV
attr interpolationmode none
attr source queueingTime(packetPopped)
attr title "queueing times, vector"
attr unit s
vector 338 scenario.client0.ppp[2].ppp txPk:vector(packetBytes) ETV
attr interpolationmode none
attr source packetSentToLower
attr title "packets transmitted, vector(packetBytes)"
vector 339 scenario.client3.ppp[0].ppp rxPkOk:vector(packetBytes) ETV
attr interpolationmode none
attr source rxPkOk
attr title "packets received OK, vector(packetBytes)"
vector 340 scenario.client3.ppp[0].ppp passedUpPk:vector(packetBytes) ETV
attr interpolationmode none
attr source packetSentToUpper
attr title "packets passed to higher layer, vector(packetBytes)"
vector 341 scenario.client3.tcp.conn-41 rcvSeq:vector ETV
attr interpolationmode sample-hold
vector 342 scenario.client3.tcp.conn-41 rcvAck:vector ETV
attr interpolationmode sample-hold
vector 343 scenario.client3.tcp.conn-41 sndWnd:vector ETV
attr interpolationmode sample-hold
vector 344 scenario.client3.tcp.conn-41 unacked:vector ETV
attr interpolationmode sample-hold
vector 345 scenario.client0.tcp.conn-42 rcvSeq:vector ETV
attr interpolationmode sample-hold
vector 346 scenario.client0.tcp.conn-42 rcvAck:vector ETV
attr interpolationmode sample-hold
vector 347 scenario.client0.tcp.conn-42 unacked:vector ETV
attr interpolationmode sample-hold
vector 348 scenario.client0.tcp.conn-42 cwnd:vector ETV
attr interpolationmode sample-hold
vector 349 scenario.client0.tcp.conn-42 ssthresh:vector ETV
attr interpolationmode sample-hold
vector 350 scenario.client0.tcp.conn-42 dupAcks:vector ETV
attr interpolationmode sample-hold
vector 351 scenario.client3.tcp.conn-41 rtt:vector ETV
attr interpolationmode sample-hold
vector 352 scenario.client3.tcp.conn-41 srtt:vector ETV
attr interpolationmode sample-hold
vector 353 scenario.client3.tcp.conn-41 rttvar:vector ETV
attr interpolationmode sample-hold
vector 354 scenario.client3.tcp.conn-41 rto:vector ETV
attr interpolationmode sample-hold
vector 355 scenario.client3.tcp.conn-41 cwnd:vector ETV
attr interpolationmode sample-hold
vector 356 scenario.client3.tcp.conn-41 ssthresh:vector ETV
attr interpolationmode sample-hold
vector 357 scenario.client3.tcp.conn-41 dupAcks:vector ETV
attr interpolationmode sample-hold
vector 358 scenario.client3.tcp.conn-43 tcpRcvQueueBytes:vector ETV
attr interpolationmode sample-hold
vector 359 scenario.client3.tcp.conn-43 rcvAdv:vector ETV
attr interpolationmode sample-hold
vector 360 scenario.client3.tcp.conn-43 rcvWnd:vector ETV
attr interpolationmode sample-hold
vector 361 scenario.client3.tcp.conn-43 sndAck:vector ETV
attr interpolationmode sample-hold
vector 362 scenario.client1.tcp.conn-44 rcvAdv:vector ETV
attr interpolationmode sample-hold
vector 363 scenario.client1.tcp.conn-44 sndWnd:vector ETV
attr interpolationmode sample-hold
vector 364 scenario.client1.tcp.conn-44 tcpRcvQueueBytes:vector ETV
attr interpolationmode sample-hold
vector 365 scenario.client1.tcp.conn-44 rcvWnd:vector ETV
attr interpolationmode sample-hold
vector 366 scenario.client1.tcp.conn-44 sndAck:vector ETV
attr interpolationmode sample-hold
vector 367 scenario.client3.tcp.conn-43 rcvSeq:vector ETV
attr interpolationmode sample-hold
vector 368 scenario.client3.tcp.conn-43 rcvAck:vector ETV
attr interpolationmode sample-hold
vector 369 scenario.client3.tcp.conn-43 sndWnd:vector ETV
attr interpolationmode sample-hold
vector 370 scenario.client3.tcp.conn-43 unacked:vector ETV
attr interpolationmode sample-hold
vector 371 scenario.client1.tcp.conn-44 rcvSeq:vector ETV
attr interpolationmode sample-hold
vector 372 scenario.client1.tcp.conn-44 rcvAck:vector ETV
attr interpolationmode sample-hold
vector 373 scenario.client1.tcp.conn-44 unacked:vector ETV
attr interpolationmode sample-hold
vector 374 scenario.client1.tcp.conn-44 cwnd:vector ETV
attr interpolationmode sample-hold
vector 375 scenario.client1.tcp.conn-44 ssthresh:vector ETV
attr interpolationmode sample-hold
vector 376 scenario.client1.tcp.conn-44 dupAcks:vector ETV
attr interpolationmode sample-hold
vector 377 scenario.client3.tcp.conn-43 rtt:vector ETV
attr interpolationmode sample-hold
vector 378 scenario.client3.tcp.conn-43 srtt:vector ETV
attr interpolationmode sample-hold
vector 379 scenario.client3.tcp.conn-43 rttvar:vector ETV
attr interpolationmode sample-hold
vector 380 scenario.client3.tcp.conn-43 rto:vector ETV
attr interpolationmode sample-hold
vector 381 scenario.client3.tcp.conn-43 cwnd:vector ETV
attr interpolationmode sample-hold
vector 382 scenario.client3.tcp.conn-43 ssthresh:vector ETV
attr interpolationmode sample-hold
vector 383 scenario.client3.tcp.conn-43 dupAcks:vector ETV
attr interpolationmode sample-hold
vector 384 scenario.client0.tcp.conn-45 tcpRcvQueueBytes:vector ETV
attr interpolationmode sample-hold
vector 385 scenario.client0.tcp.conn-45 rcvAdv:vector ETV
attr interpolationmode sample-hold
vector 386 scenario.client0.tcp.conn-45 rcvWnd:vector ETV
attr interpolationmode sample-hold
vector 387 scenario.client0.tcp.conn-45 sndAck:vector ETV
attr interpolationmode sample-hold
vector 388 scenario.client3.tcp.conn-46 rcvAdv:vector ETV
attr interpolationmode sample-hold
vector 389 scenario.client3.tcp.conn-46 sndWnd:vector ETV
attr interpolationmode sample-hold
vector 390 scenario.client3.tcp.conn-46 tcpRcvQueueBytes:vector ETV
attr interpolationmode sample-hold
vector 391 scenario.client3.tcp.conn-46 rcvWnd:vector ETV
attr interpolationmode sample-hold
vector 392 scenario.client3.tcp.conn-46 sndAck:vector ETV
attr interpolationmode sample-hold
vector 393 scenario.client0.tcp.conn-45 rcvSeq:vector ETV
attr interpolationmode sample-hold
vector 394 scenario.client0.tcp.conn-45 rcvAck:vector ETV
attr interpolationmode sample-hold
vector 395 scenario.client0.tcp.conn-45 sndWnd:vector ETV
attr interpolationmode sample-hold
vector 396 scenario.client0.tcp.conn-45 unacked:vector ETV
attr interpolationmode sample-hold
vector 397 scenario.client3.tcp.conn-46 rcvSeq:vector ETV
attr interpolationmode sample-hold
vector 398 scenario.client3.tcp.conn-46 rcvAck:vector ETV
attr interpolationmode sample-hold
vector 399 scenario.client3.tcp.conn-46 unacked:vector ETV
attr interpolationmode sample-hold
vector 400 scenario.client3.tcp.conn-46 cwnd:vector ETV
attr interpolationmode sample-hold
vector 401 scenario.client3.tcp.conn-46 ssthresh:vector ETV
attr interpolationmode sample-hold
vector 402 scenario.client3.tcp.conn-46 dupAcks:vector ETV
attr interpolationmode sample-hold
vector 403 scenario.client0.tcp.conn-45 rtt:vector ETV
attr interpolationmode sample-hold
vector 404 scenario.client0.tcp.conn-45 srtt:vector ETV
attr interpolationmode sample-hold
vector 405 scenario.client0.tcp.conn-45 rttvar:vector ETV
attr interpolationmode sample-hold
vector 406 scenario.client0.tcp.conn-45 rto:vector ETV
attr interpolationmode sample-hold
vector 407 scenario.client0.tcp.conn-45 cwnd:vector ETV
attr interpolationmode sample-hold
vector 408 scenario.client0.tcp.conn-45 ssthresh:vector ETV
attr interpolationmode sample-hold
vector 409 scenario.client0.tcp.conn-45 dupAcks:vector ETV
attr interpolationmode sample-hold
vector 410 scenario.client3.tcp.conn-47 tcpRcvQueueBytes:vector ETV
attr interpolationmode sample-hold
vector 411 scenario.client3.tcp.conn-47 rcvAdv:vector ETV
attr interpolationmode sample-hold
vector 412 scenario.client3.tcp.conn-47 rcvWnd:vector ETV
attr interpolationmode sample-hold
vector 413 scenario.client3.tcp.conn-47 sndAck:vector ETV
attr interpolationmode sample-hold
vector 414 scenario.client2.tcp.conn-48 rcvAdv:vector ETV
attr interpolationmode sample-hold
vector 415 scenario.client2.tcp.conn-48 sndWnd:vector ETV
attr interpolationmode sample-hold
vector 416 scenario.client2.tcp.conn-48 tcpRcvQueueBytes:vector ETV
attr interpolationmode sample-hold
vector 417 scenario.client2.tcp.conn-48 rcvWnd:vector ETV
attr interpolationmode sample-hold
vector 418 scenario.client2.tcp.conn-48 sndAck:vector ETV
attr interpolationmode sample-hold
vector 419 scenario.client3.tcp.conn-47 rcvSeq:vector ETV
attr interpolationmode sample-hold
vector 420 scenario.client3.tcp.conn-47 rcvAck:vector ETV
attr interpolationmode sample-hold
vector 421 scenario.client3.tcp.conn-47 sndWnd:vector ETV
attr interpolationmode sample-hold
vector 422 scenario.client3.tcp.conn-47 unacked:vector ETV
attr interpolationmode sample-hold
vector 423 scenario.client2.tcp.conn-48 rcvSeq:vector ETV
attr interpolationmode sample-hold
vector 424 scenario.client2.tcp.conn-48 rcvAck:vector ETV
attr interpolationmode sample-hold
vector 425 scenario.client2.tcp.conn-48 unacked:vector ETV
attr interpolationmode sample-hold
vector 426 scenario.client2.tcp.conn-48 cwnd:vector ETV
attr interpolationmode sample-hold
vector 427 scenario.client2.tcp.conn-48 ssthresh:vector ETV
attr interpolationmode sample-hold
vector 428 scenario.client2.tcp.conn-48 dupAcks:vector ETV
attr interpolationmode sample-hold
vector 429 scenario.client3.tcp.conn-47 rtt:vector ETV
attr interpolationmode sample-hold
vector 430 scenario.client3.tcp.conn-47 srtt:vector ETV
attr interpolationmode sample-hold
vector 431 scenario.client3.tcp.conn-47 rttvar:vector ETV
attr interpolationmode sample-hold
vector 432 scenario.client3.tcp.conn-47 rto:vector ETV
attr interpolationmode sample-hold
vector 433 scenario.client3.tcp.conn-47 cwnd:vector ETV
attr interpolationmode sample-hold
vector 434 scenario.client3.tcp.conn-47 ssthresh:vector ETV
attr interpolationmode sample-hold
vector 435 scenario.client3.tcp.conn-47 dupAcks:vector ETV
attr interpolationmode sample-hold
vector 436 scenario.client0.tcp.conn-49 tcpRcvQueueBytes:vector ETV
attr interpolationmode sample-hold
vector 437 scenario.client0.tcp.conn-49 rcvAdv:vector ETV
attr interpolationmode sample-hold
vector 438 scenario.client0.tcp.conn-49 rcvWnd:vector ETV
attr interpolationmode sample-hold
vector 439 scenario.client0.tcp.conn-49 sndAck:vector ETV
attr interpolationmode sample-hold
vector 440 scenario.client0.ppp[3].ppp rcvdPkFromHl:vector(packetBytes) ETV
attr interpolationmode none
attr source packetReceivedFromUpper
attr title "packets received from higher layer, vector(packetBytes)"
vector 441 scenario.client0.ppp[3].ppp.queue packetPushed:vector(packetBytes) ETV
attr interpolationmode none
attr title "packet pushed, vector(packetBytes)"
vector 442 scenario.client0.ppp[3].ppp.queue queueLength:vector ETV
attr interpolationmode sample-hold
attr source "count(packetPushed) - count(packetPopped) - count(packetRemoved) - count(packetDropped)"
attr title "queue length, vector"
vector 443 scenario.client0.ppp[3].ppp.queue packetPopped:vector(packetBytes) ETV
attr interpolationmode none
attr title "packet popped, vector(packetBytes)"
vector 444 scenario.client0.ppp[3].ppp.queue queueingTime:vector ETV
attr interpolationmode none
attr source queueingTime(packetPopped)
attr title "queueing times, vector"
attr unit s
vector 445 scenario.client0.ppp[3].ppp txPk:vector(packetBytes) ETV
attr interpolationmode none
attr source packetSentToLower
attr title "packets transmitted, vector(packetBytes)"
vector 446 scenario.client4.ppp[0].ppp rxPkOk:vector(packetBytes) ETV
attr interpolationmode none
attr source rxPkOk
attr title "packets received OK, vector(packetBytes)"
vector 447 scenario.client4.ppp[0].ppp passedUpPk:vector(packetBytes) ETV
attr interpolationmode none
attr source packetSentToUpper
attr title "packets passed to higher layer, vector(packetBytes)"
vector 448 scenario.client4.tcp.conn-4 rcvSeq:vector ETV
attr interpolationmode sample-hold
vector 449 scenario.client4.tcp.conn-4 rcvAck:vector ETV
attr interpolationmode sample-hold
vector 450 scenario.client4.tcp.conn-50 rcvAdv:vector ETV
attr interpolationmode sample-hold
vector 451 scenario.client4.tcp.conn-50 sndWnd:vector ETV
attr interpolationmode sample-hold
vector 452 scenario.client4.tcp.conn-50 tcpRcvQueueBytes:vector ETV
attr interpolationmode sample-hold
vector 453 scenario.client4.tcp.conn-50 rcvWnd:vector ETV
attr interpolationmode sample-hold
vector 454 scenario.client4.tcp.conn-50 sndAck:vector ETV
attr interpolationmode sample-hold
vector 455 scenario.client4.ppp[0].ppp rcvdPkFromHl:vector(packetBytes) ETV
attr interpolationmode none
attr source packetReceivedFromUpper
attr title "packets received from higher layer, vector(packetBytes)"
vector 456 scenario.client4.ppp[0].ppp.queue packetPushed:vector(packetBytes) ETV
attr interpolationmode none
attr title "packet pushed, vector(packetBytes)"
vector 457 scenario.client4.ppp[0].ppp.queue queueLength:vector ETV
attr interpolationmode sample-hold
attr source "count(packetPushed) - count(packetPopped) - count(packetRemoved) - count(packetDropped)"
attr title "queue length, vector"
vector 458 scenario.client4.ppp[0].ppp.queue packetPopped:vector(packetBytes) ETV
attr interpolationmode none
attr title "packet popped, vector(packetBytes)"
vector 459 scenario.client4.ppp[0].ppp.queue queueingTime:vector ETV
attr interpolationmode none
attr source queueingTime(packetPopped)
attr title "queueing times, vector"
attr unit s
vector 460 scenario.client4.ppp[0].ppp txPk:vector(packetBytes) ETV
attr interpolationmode none
attr source packetSentToLower
attr title "packets transmitted, vector(packetBytes)"
vector 461 scenario.client0.ppp[3].ppp rxPkOk:vector(packetBytes) ETV
attr interpolationmode none
attr source rxPkOk
attr title "packets received OK, vector(packetBytes)"
vector 462 scenario.client0.ppp[3].ppp passedUpPk:vector(packetBytes) ETV
attr interpolationmode none
attr source packetSentToUpper
attr title "packets passed to higher layer, vector(packetBytes)"
vector 463 scenario.client0.tcp.conn-49 rcvSeq:vector ETV
attr interpolationmode sample-hold
vector 464 scenario.client0.tcp.conn-49 rcvAck:vector ETV
attr interpolationmode sample-hold
vector 465 scenario.client0.tcp.conn-49 sndWnd:vector ETV
attr interpolationmode sample-hold
vector 466 scenario.client0.tcp.conn-49 unacked:vector ETV
attr interpolationmode sample-hold
vector 467 scenario.client4.tcp.conn-50 rcvSeq:vector ETV
attr interpolationmode sample-hold
vector 468 scenario.client4.tcp.conn-50 rcvAck:vector ETV
attr interpolationmode sample-hold
vector 469 scenario.client4.tcp.conn-50 unacked:vector ETV
attr interpolationmode sample-hold
vector 470 scenario.client4.tcp.conn-50 cwnd:vector ETV
attr interpolationmode sample-hold
vector 471 scenario.client4.tcp.conn-50 ssthresh:vector ETV
attr interpolationmode sample-hold
vector 472 scenario.client4.tcp.conn-50 dupAcks:vector ETV
attr interpolationmode sample-hold
vector 473 scenario.client0.tcp.conn-49 rtt:vector ETV
attr interpolationmode sample-hold
vector 474 scenario.client0.tcp.conn-49 srtt:vector ETV
attr interpolationmode sample-hold
vector 475 scenario.client0.tcp.conn-49 rttvar:vector ETV
attr interpolationmode sample-hold
vector 476 scenario.client0.tcp.conn-49 rto:vector ETV
attr interpolationmode sample-hold
vector 477 scenario.client0.tcp.conn-49 cwnd:vector ETV
attr interpolationmode sample-hold
vector 478 scenario.client0.tcp.conn-49 ssthresh:vector ETV
attr interpolationmode sample-hold
vector 479 scenario.client0.tcp.conn-49 dupAcks:vector ETV
attr interpolationmode sample-hold
vector 480 scenario.client1.tcp.conn-51 tcpRcvQueueBytes:vector ETV
attr interpolationmode sample-hold
vector 481 scenario.client1.tcp.conn-51 rcvAdv:vector ETV
attr interpolationmode sample-hold
vector 482 scenario.client1.tcp.conn-51 rcvWnd:vector ETV
attr interpolationmode sample-hold
vector 483 scenario.client1.tcp.conn-51 sndAck:vector ETV
attr interpolationmode sample-hold
vector 484 scenario.client3.tcp.conn-52 tcpRcvQueueBytes:vector ETV
attr interpolationmode sample-hold
vector 485 scenario.client3.tcp.conn-52 rcvAdv:vector ETV
attr interpolationmode sample-hold
vector 486 scenario.client3.tcp.conn-52 rcvWnd:vector ETV
attr interpolationmode sample-hold
vector 487 scenario.client3.tcp.conn-52 sndAck:vector ETV
attr interpolationmode sample-hold
vector 488 scenario.client1.ppp[3].ppp rcvdPkFromHl:vector(packetBytes) ETV
attr interpolationmode none
attr source packetReceivedFromUpper
attr title "packets received from higher layer, vector(packetBytes)"
vector 489 scenario.client1.ppp[3].ppp.queue packetPushed:vector(packetBytes) ETV
attr interpolationmode none
attr title "packet pushed, vector(packetBytes)"
vector 490 scenario.client1.ppp[3].ppp.queue queueLength:vector ETV
attr interpolationmode sample-hold
attr source "count(packetPushed) - count(packetPopped) - count(packetRemoved) - count(packetDropped)"
attr title "queue length, vector"
vector 491 scenario.client1.ppp[3].ppp.queue packetPopped:vector(packetBytes) ETV
attr interpolationmode none
attr title "packet popped, vector(packetBytes)"
vector 492 scenario.client1.ppp[3].ppp.queue queueingTime:vector ETV
attr interpolationmode none
attr source queueingTime(packetPopped)
attr title "queueing times, vector"
attr unit s
vector 493 scenario.client1.ppp[3].ppp txPk:vector(packetBytes) ETV
attr interpolationmode none
attr source packetSentToLower
attr title "packets transmitted, vector(packetBytes)"
vector 494 scenario.client3.ppp[3].ppp rcvdPkFromHl:vector(packetBytes) ETV
attr interpolationmode none
attr source packetReceivedFromUpper
attr title "packets received from higher layer, vector(packetBytes)"
vector 495 scenario.client3.ppp[3].ppp.queue packetPushed:vector(packetBytes) ETV
attr interpolationmode none
attr title "packet pushed, vector(packetBytes)"
vector 496 scenario.client3.ppp[3].ppp.queue queueLength:vector ETV
attr interpolationmode sample-hold
attr source "count(packetPushed) - count(packetPopped) - count(packetRemoved) - count(packetDropped)"
attr title "queue length, vector"
vector 497 scenario.client3.ppp[3].ppp.queue packetPopped:vector(packetBytes) ETV
attr interpolationmode none
attr title "packet popped, vector(packetBytes)"
vector 498 scenario.client3.ppp[3].ppp.queue queueingTime:vector ETV
attr interpolationmode none
attr source queueingTime(packetPopped)
attr title "queueing times, vector"
attr unit s
vector 499 scenario.client3.ppp[3].ppp txPk:vector(packetBytes) ETV
attr interpolationmode none
attr source packetSentToLower
attr title "packets transmitted, vector(packetBytes)"
vector 500 scenario.client4.ppp[1].ppp rxPkOk:vector(packetBytes) ETV
attr interpolationmode none
attr source rxPkOk
attr title "packets received OK, vector(packetBytes)"
vector 501 scenario.client4.ppp[1].ppp passedUpPk:vector(packetBytes) ETV
attr interpolationmode none
attr source packetSentToUpper
attr title "packets passed to higher layer, vector(packetBytes)"
vector 502 scenario.client4.ppp[3].ppp rxPkOk:vector(packetBytes) ETV
attr interpolationmode none
attr source rxPkOk
attr title "packets received OK, vector(packetBytes)"
vector 503 scenario.client4.ppp[3].ppp passedUpPk:vector(packetBytes) ETV
attr interpolationmode none
attr source packetSentToUpper
attr title "packets passed to higher layer, vector(packetBytes)"
vector 504 scenario.client4.tcp.conn-53 rcvAdv:vector ETV
attr interpolationmode sample-hold
vector 505 scenario.client4.tcp.conn-53 sndWnd:vector ETV
attr interpolationmode sample-hold
vector 506 scenario.client4.tcp.conn-53 tcpRcvQueueBytes:vector ETV
attr interpolationmode sample-hold
vector 507 scenario.client4.tcp.conn-53 rcvWnd:vector ETV
attr interpolationmode sample-hold
vector 508 scenario.client4.tcp.conn-53 sndAck:vector ETV
attr interpolationmode sample-hold
vector 509 scenario.client4.tcp.conn-54 rcvAdv:vector ETV
attr interpolationmode sample-hold
vector 510 scenario.client4.tcp.conn-54 sndWnd:vector ETV
attr interpolationmode sample-hold
vector 511 scenario.client4.tcp.conn-54 tcpRcvQueueBytes:vector ETV
attr interpolationmode sample-hold
vector 512 scenario.client4.tcp.conn-54 rcvWnd:vector ETV
attr interpolationmode sample-hold
vector 513 scenario.client4.tcp.conn-54 sndAck:vector ETV
attr interpolationmode sample-hold
vector 514 scenario.client4.ppp[1].ppp rcvdPkFromHl:vector(packetBytes) ETV
attr interpolationmode none
attr source packetReceivedFromUpper
attr title "packets received from higher layer, vector(packetBytes)"
vector 515 scenario.client4.ppp[1].ppp.queue packetPushed:vector(packetBytes) ETV
attr interpolationmode none
attr title "packet pushed, vector(packetBytes)"
vector 516 scenario.client4.ppp[1].ppp.queue queueLength:vector ETV
attr interpolationmode sample-hold
attr source "count(packetPushed) - count(packetPopped) - count(packetRemoved) - count(packetDropped)"
attr title "queue length, vector"
vector 517 scenario.client4.ppp[1].ppp.queue packetPopped:vector(packetBytes) ETV
attr interpolationmode none
attr title "packet popped, vector(packetBytes)"
vector 518 scenario.client4.ppp[1].ppp.queue queueingTime:vector ETV
attr interpolationmode none
attr source queueingTime(packetPopped)
attr title "queueing times, vector"
attr unit s
vector 519 scenario.client4.ppp[1].ppp txPk:vector(packetBytes) ETV
attr interpolationmode none
attr source packetSentToLower
attr title "packets transmitted, vector(packetBytes)"
vector 520 scenario.client4.ppp[3].ppp rcvdPkFromHl:vector(packetBytes) ETV
attr interpolationmode none
attr source packetReceivedFromUpper
attr title "packets received from higher layer, vector(packetBytes)"
vector 521 scenario.client4.ppp[3].ppp.queue packetPushed:vector(packetBytes) ETV
attr interpolationmode none
attr title "packet pushed, vector(packetBytes)"
vector 522 scenario.client4.ppp[3].ppp.queue queueLength:vector ETV
attr interpolationmode sample-hold
attr source "count(packetPushed) - count(packetPopped) - count(packetRemoved) - count(packetDropped)"
attr title "queue length, vector"
vector 523 scenario.client4.ppp[3].ppp.queue packetPopped:vector(packetBytes) ETV
attr interpolationmode none
attr title "packet popped, vector(packetBytes)"
vector 524 scenario.client4.ppp[3].ppp.queue queueingTime:vector ETV
attr interpolationmode none
attr source queueingTime(packetPopped)
attr title "queueing times, vector"
attr unit s
vector 525 scenario.client4.ppp[3].ppp txPk:vector(packetBytes) ETV
attr interpolationmode none
attr source packetSentToLower
attr title "packets transmitted, vector(packetBytes)"
vector 526 scenario.client1.ppp[3].ppp rxPkOk:vector(packetBytes) ETV
attr interpolationmode none
attr source rxPkOk
attr title "packets received OK, vector(packetBytes)"
vector 527 scenario.client1.ppp[3].ppp passedUpPk:vector(packetBytes) ETV
attr interpolationmode none
attr source packetSentToUpper
attr title "packets passed to higher layer, vector(packetBytes)"
vector 528 scenario.client3.ppp[3].ppp rxPkOk:vector(packetBytes) ETV
attr interpolationmode none
attr source rxPkOk
attr title "packets received OK, vector(packetBytes)"
vector 529 scenario.client3.ppp[3].ppp passedUpPk:vector(packetBytes) ETV
attr interpolationmode none
attr source packetSentToUpper
attr title "packets passed to higher layer, vector(packetBytes)"
vector 530 scenario.client1.tcp.conn-51 rcvSeq:vector ETV
attr interpolationmode sample-hold
vector 531 scenario.client1.tcp.conn-51 rcvAck:vector ETV
attr interpolationmode sample-hold
vector 532 scenario.client1.tcp.conn-51 sndWnd:vector ETV
attr interpolationmode sample-hold
vector 533 scenario.client1.tcp.conn-51 unacked:vector ETV
attr interpolationmode sample-hold
vector 534 scenario.client3.tcp.conn-52 rcvSeq:vector ETV
attr interpolationmode sample-hold
vector 535 scenario.client3.tcp.conn-52 rcvAck:vector ETV
attr interpolationmode sample-hold
vector 536 scenario.client3.tcp.conn-52 sndWnd:vector ETV
attr interpolationmode sample-hold
vector 537 scenario.client3.tcp.conn-52 unacked:vector ETV
attr interpolationmode sample-hold
vector 538 scenario.client4.tcp.conn-53 rcvSeq:vector ETV
attr interpolationmode sample-hold
vector 539 scenario.client4.tcp.conn-53 rcvAck:vector ETV
attr interpolationmode sample-hold
vector 540 scenario.client4.tcp.conn-53 unacked:vector ETV
attr interpolationmode sample-hold
vector 541 scenario.client4.tcp.conn-53 cwnd:vector ETV
attr interpolationmode sample-hold
vector 542 scenario.client4.tcp.conn-53 ssthresh:vector ETV
attr interpolationmode sample-hold
vector 543 scenario.client4.tcp.conn-53 dupAcks:vector ETV
attr interpolationmode sample-hold
vector 544 scenario.client4.tcp.conn-54 rcvSeq:vector ETV
attr interpolationmode sample-hold
vector 545 scenario.client4.tcp.conn-54 rcvAck:vector ETV
attr interpolationmode sample-hold
vector 546 scenario.client4.tcp.conn-54 unacked:vector ETV
attr interpolationmode sample-hold
vector 547 scenario.client4.tcp.conn-54 cwnd:vector ETV
attr interpolationmode sample-hold
vector 548 scenario.client4.tcp.conn-54 ssthresh:vector ETV
attr interpolationmode sample-hold
vector 549 scenario.client4.tcp.conn-54 dupAcks:vector ETV
attr interpolationmode sample-hold
vector 550 scenario.client1.tcp.conn-51 rtt:vector ETV
attr interpolationmode sample-hold
vector 551 scenario.client1.tcp.conn-51 srtt:vector ETV
attr interpolationmode sample-hold
vector 552 scenario.client1.tcp.conn-51 rttvar:vector ETV
attr interpolationmode sample-hold
vector 553 scenario.client1.tcp.conn-51 rto:vector ETV
attr interpolationmode sample-hold
vector 554 scenario.client1.tcp.conn-51 cwnd:vector ETV
attr interpolationmode sample-hold
vector 555 scenario.client1.tcp.conn-51 ssthresh:vector ETV
attr interpolationmode sample-hold
vector 556 scenario.client1.tcp.conn-51 dupAcks:vector ETV
attr interpolationmode sample-hold
vector 557 scenario.client3.tcp.conn-52 rtt:vector ETV
attr interpolationmode sample-hold
vector 558 scenario.client3.tcp.conn-52 srtt:vector ETV
attr interpolationmode sample-hold
vector 559 scenario.client3.tcp.conn-52 rttvar:vector ETV
attr interpolationmode sample-hold
vector 560 scenario.client3.tcp.conn-52 rto:vector ETV
attr interpolationmode sample-hold
vector 561 scenario.client3.tcp.conn-52 cwnd:vector ETV
attr interpolationmode sample-hold
vector 562 scenario.client3.tcp.conn-52 ssthresh:vector ETV
attr interpolationmode sample-hold
vector 563 scenario.client3.tcp.conn-52 dupAcks:vector ETV
attr interpolationmode sample-hold
0	0	0	0
0	59	0.794241157262	1
0	60	0.794649157262	0
0	72	0.796057157262	1
0	73	0.796441157262	0
0	95	0.844434949797	1
0	96	0.844818949797	0
0	218	1.158492338755	1
0	219	1.158900338755	0
0	233	1.160284338755	1
0	236	1.160660338755	0
0	302	1.291553603565	1
0	303	1.291929603565	0
0	692	2.101808801049	1
0	693	2.102184801049	0
0	1027	2.624439312601	1
0	1028	2.624823312601	0
0	1080	2.649773528368	1
0	1084	2.650149528368	0
0	1144	2.669738972991	1
0	1145	2.670122972991	0
0	1355	2.965367627186	1
0	1356	2.965743627186	0
0	1467	3.165713523118	1
0	1471	3.166105523118	0
0	1605	3.173963713004	1
0	1606	3.174347713004	0
0	1627	3.185062258125	1
0	1628	3.185438258125	0
0	1682	3.240093057161	1
0	1683	3.240469057161	0
0	1750	3.420976262825	1
0	1751	3.421360262825	0
0	1780	3.458300399914	1
0	1781	3.458684399914	0
0	1832	3.487992836085	1
0	1833	3.488368836085	0
0	1870	3.534042450758	1
0	1871	3.534426450758	0
0	1912	3.627425979432	1
0	1913	3.627801979432	0
0	1920	3.657122562701	1
0	1921	3.657506562701	0
0	2062	3.777888157597	1
0	2063	3.778264157597	0
0	2075	3.823178662436	1
0	2076	3.823562662436	0
0	2207	4.166448783472	1
0	2208	4.166824783472	0
0	2220	4.313396443372	1
0	2221	4.313780443372	0
1	0	0	0
1	32	0.658117997864	1
1	33	0.658525997864	0
1	47	0.659909997864	1
1	50	0.660285997864	0
1	311	1.293209631642	1
1	312	1.293617631642	0
1	324	1.295025631642	1
1	325	1.295409631642	0
1	342	1.338386181219	1
1	343	1.338770181219	0
1	369	1.412666159734	1
1	370	1.413042159734	0
1	508	1.645779927977	1
1	509	1.646163927977	0
1	681	2.10092480105	1
1	682	2.10130080105	0
1	795	2.326375222877	1
1	796	2.326759222877	0
1	825	2.343799218238	1
1	826	2.344183218238	0
1	860	2.408734487625	1
1	861	2.409118487625	0
1	1096	2.650470564409	1
1	1104	2.650846564409	0
1	1132	2.658230384594	1
1	1134	2.658606384594	0
1	1224	2.851137882992	1
1	1225	2.851521882992	0
1	1275	2.866545464401	1
1	1285	2.866921464401	0
1	1285	2.866921464401	1
1	1294	2.867305464401	0
1	1385	3.039285530687	1
1	1386	3.039661530687	0
1	1408	3.09655961742	1
1	1409	3.09694361742	0
1	1445	3.162425642873	1
1	1446	3.162801642873	0
1	1463	3.165713523118	1
1	1470	3.166089523118	0
1	1470	3.166089523118	1
1	1473	3.166481523118	0
1	1897	3.613508502336	1
1	1898	3.613884502336	0
1	1957	3.683597814753	1
1	1958	3.683973814753	0
1	2120	3.936504702781	1
1	2121	3.936888702781	0
2	0	0	0
2	384	1.428320852198	1
2	385	1.428728852198	0
2	399	1.430112852198	1
2	402	1.430488852198	0
2	457	1.591720328379	1
2	458	1.592128328379	0
2	470	1.593536328379	1
2	471	1.593920328379	0
2	493	1.630133976257	1
2	494	1.630517976257	0
2	629	2.024913386273	1
2	630	2.025289386273	0
2	640	2.031200199225	1
2	641	2.031584199225	0
2	742	2.226150364208	1
2	743	2.226526364208	0
2	765	2.281846644002	1
2	766	2.282230644002	0
2	879	2.410215523423	1
2	883	2.410591523423	0
2	969	2.539022894254	1
2	972	2.539398894254	0
2	992	2.556971006928	1
2	993	2.557355006928	0
2	1194	2.810022368725	1
2	1195	2.810406368725	0
2	1362	2.965796959868	1
2	1363	2.966172959868	0
2	1469	3.165713523118	1
2	1472	3.166105523118	0
2	1662	3.210392620991	1
2	1663	3.210768620991	0
2	1795	3.466992248665	1
2	1796	3.467376248665	0
2	1847	3.493298167059	1
2	1848	3.493674167059	0
2	1855	3.506819940305	1
2	1856	3.507203940305	0
2	2002	3.717014545855	1
2	2003	3.717390545855	0
2	2010	3.727564172247	1
2	2011	3.727948172247	0
2	2025	3.73464550322	1
2	2026	3.73502950322	0
2	2097	3.833004585712	1
2	2098	3.833380585712	0
2	2177	4.063815036104	1
2	2178	4.064191036104	0
2	2245	4.637910569293	1
2	2246	4.638294569293	0
3	0	0	0
3	1283	2.866545464401	1
3	1292	2.866953464401	0
3	1322	2.868361464401	1
3	1326	2.868745464401	0
4	0	0	0
4	65	0.795149157262	1
4	66	0.795557157262	0
4	80	0.796941157262	1
4	83	0.797317157262	0
4	102	0.845318949797	1
4	103	0.845694949797	0
4	212	1.157584338755	1
4	213	1.157992338755	0
4	225	1.159400338755	1
4	226	1.159784338755	0
4	295	1.290669603565	1
4	296	1.291053603565	0
4	675	2.100924801049	1
4	683	2.101308801049	0
4	1034	2.625323312601	1
4	1035	2.625699312601	0
4	1056	2.648881528368	1
4	1060	2.649273528368	0
4	1151	2.670622972991	1
4	1152	2.670998972991	0
4	1343	2.964483627186	1
4	1344	2.964867627186	0
4	1489	3.166605523118	1
4	1508	3.166981523118	0
4	1612	3.174847713004	1
4	1613	3.175223713004	0
4	1620	3.184178258125	1
4	1621	3.184562258125	0
4	1670	3.239209057161	1
4	1671	3.239593057161	0
4	1757	3.421860262825	1
4	1758	3.422236262825	0
4	1787	3.459184399914	1
4	1788	3.459560399914	0
4	1825	3.487108836085	1
4	1826	3.487492836085	0
4	1877	3.534926450758	1
4	1878	3.535302450758	0
4	1905	3.626541979432	1
4	1906	3.626925979432	0
4	1927	3.658006562701	1
4	1928	3.658382562701	0
4	2055	3.777004157597	1
4	2056	3.777388157597	0
4	2082	3.824062662436	1
4	2083	3.824438662436	0
4	2200	4.165564783472	1
4	2201	4.165948783472	0
4	2227	4.314280443372	1
4	2228	4.314656443372	0
5	0	0	0
5	117	0.868970379833	1
5	118	0.869378379833	0
5	132	0.870762379833	1
5	135	0.871138379833	0
5	180	1.105000946928	1
5	181	1.105408946928	0
5	193	1.106816946928	1
5	194	1.107200946928	0
5	243	1.163129700613	1
5	244	1.163513700613	0
5	530	1.663197819635	1
5	531	1.663573819635	0
5	575	1.81023599829	1
5	576	1.81061999829	0
5	757	2.274856868557	1
5	758	2.275232868557	0
5	810	2.333757591846	1
5	811	2.334141591846	0
5	890	2.431599933226	1
5	891	2.431983933226	0
5	912	2.513204354015	1
5	913	2.513580354015	0
5	1014	2.568436810937	1
5	1015	2.568812810937	0
5	1057	2.648881528368	1
5	1061	2.649273528368	0
5	1126	2.657946562456	1
5	1133	2.658322562456	0
5	1239	2.864769464401	1
5	1240	2.865153464401	0
5	1291	2.866921464401	1
5	1293	2.867297464401	0
5	1503	3.166605523118	1
5	1516	3.166989523118	0
5	1689	3.240572316539	1
5	1690	3.240948316539	0
5	1722	3.299919113621	1
5	1723	3.300295113621	0
5	1735	3.401531082614	1
5	1736	3.401915082614	0
5	1810	3.4776283943	1
5	1811	3.4780123943	0
6	0	0	0
6	143	0.963700248054	1
6	144	0.964108248054	0
6	156	0.965516248054	1
6	157	0.965900248054	0
6	431	1.527780674581	1
6	432	1.528188674581	0
6	446	1.529572674581	1
6	449	1.529948674581	0
6	610	2.023590898037	1
6	611	2.023974898037	0
6	787	2.284318643269	1
6	788	2.284694643269	0
6	847	2.369534350292	1
6	848	2.369910350292	0
6	970	2.539022894254	1
6	973	2.539398894254	0
6	1052	2.648881528368	1
6	1059	2.649257528368	0
6	1059	2.649257528368	1
6	1066	2.649649528368	0
6	1174	2.781209785456	1
6	1175	2.781593785456	0
6	1209	2.822655994873	1
6	1210	2.823039994873	0
6	1393	3.040322123234	1
6	1394	3.040706123234	0
6	1423	3.154431866939	1
6	1424	3.154815866939	0
6	1935	3.669426411694	1
6	1936	3.669810411694	0
6	1977	3.694568773828	1
6	1984	3.694944773828	0
6	2105	3.909792265877	1
6	2106	3.910176265877	0
6	2142	3.961883214453	1
6	2143	3.962259214453	0
6	2162	4.010541569995	1
6	2163	4.010917569995	0
6	2192	4.071904514664	1
6	2193	4.072280514664	0
6	2260	4.688723887571	1
6	2261	4.689107887571	0
7	0	0	0
7	1504	3.166605523118	1
7	1518	3.167013523118	0
7	1572	3.168421523118	1
7	1574	3.168805523118	0
8	0	0	0
8	26	0.657209997864	1
8	27	0.657617997864	0
8	39	0.659025997864	1
8	40	0.659409997864	0
8	317	1.294117631642	1
8	318	1.294525631642	0
8	332	1.295909631642	1
8	335	1.296285631642	0
8	349	1.339270181219	1
8	350	1.339646181219	0
8	362	1.411782159734	1
8	363	1.412166159734	0
8	515	1.646663927977	1
8	516	1.647039927977	0
8	670	2.10004080105	1
8	671	2.10042480105	0
8	802	2.327259222877	1
8	803	2.327635222877	0
8	832	2.344683218238	1
8	833	2.345059218238	0
8	871	2.409618487625	1
8	873	2.409994487625	0
8	1065	2.649586564409	1
8	1082	2.649970564409	0
8	1118	2.657346384594	1
8	1120	2.657730384594	0
8	1231	2.852021882992	1
8	1232	2.852397882992	0
8	1253	2.865653464401	1
8	1257	2.866045464401	0
8	1314	2.867805464401	1
8	1316	2.868181464401	0
8	1378	3.038401530687	1
8	1379	3.038785530687	0
8	1415	3.09744361742	1
8	1416	3.09781961742	0
8	1438	3.161541642873	1
8	1439	3.161925642873	0
8	1453	3.164829523118	1
8	1454	3.165213523118	0
8	1515	3.166981523118	1
8	1520	3.167357523118	0
8	1890	3.612624502336	1
8	1891	3.613008502336	0
8	1950	3.682713814753	1
8	1951	3.683097814753	0
8	2127	3.937388702781	1
8	2128	3.937764702781	0
9	0	0	0
9	111	0.868062379833	1
9	112	0.868470379833	0
9	124	0.869878379833	1
9	125	0.870262379833	0
9	186	1.105908946928	1
9	187	1.106316946928	0
9	201	1.107700946928	1
9	204	1.108076946928	0
9	250	1.164013700613	1
9	251	1.164389700613	0
9	523	1.662313819635	1
9	524	1.662697819635	0
9	582	1.81111999829	1
9	583	1.81149599829	0
9	750	2.273972868557	1
9	751	2.274356868557	0
9	817	2.334641591846	1
9	818	2.335017591846	0
9	897	2.432483933226	1
9	898	2.432859933226	0
9	905	2.512320354015	1
9	906	2.512704354015	0
9	1007	2.567552810937	1
9	1008	2.567936810937	0
9	1081	2.649773528368	1
9	1085	2.650149528368	0
9	1114	2.657062562456	1
9	1119	2.657446562456	0
9	1249	2.865653464401	1
9	1256	2.866029464401	0
9	1256	2.866029464401	1
9	1259	2.866421464401	0
9	1537	3.167489523118	1
9	1552	3.167865523118	0
9	1675	3.239688316539	1
9	1676	3.240072316539	0
9	1715	3.299035113621	1
9	1716	3.299419113621	0
9	1742	3.402415082614	1
9	1743	3.402791082614	0
9	1817	3.4785123943	1
9	1818	3.4788883943	0
10	0	0	0
10	264	1.259096041749	1
10	265	1.259504041749	0
10	277	1.260912041749	1
10	278	1.261296041749	0
10	409	1.441787070162	1
10	410	1.442171070162	0
10	545	1.788507441511	1
10	546	1.788915441511	0
10	560	1.790299441511	1
10	563	1.790675441511	0
10	597	1.881435680898	1
10	598	1.881811680898	0
10	655	2.035889857356	1
10	656	2.036273857356	0
10	707	2.179983887936	1
10	708	2.180359887936	0
10	722	2.184614672811	1
10	723	2.184990672811	0
10	920	2.529809533494	1
10	921	2.530193533494	0
10	935	2.537246894254	1
10	936	2.537630894254	0
10	978	2.539398894254	1
10	979	2.539774894254	0
10	1159	2.770997313883	1
10	1160	2.771381313883	0
10	1255	2.865653464401	1
10	1258	2.866045464401	0
10	1538	3.167489523118	1
10	1553	3.167865523118	0
10	1642	3.195804773461	1
10	1643	3.196180773461	0
10	1700	3.288323116795	1
10	1701	3.288707116795	0
10	1772	3.428934630574	1
10	1773	3.429310630574	0
10	1983	3.694919144994	1
10	1985	3.695295144994	0
10	2040	3.763111272562	1
10	2041	3.763495272562	0
11	0	0	0
12	0	0	0
12	378	1.427412852198	1
12	379	1.427820852198	0
12	391	1.429228852198	1
12	392	1.429612852198	0
12	463	1.592628328379	1
12	464	1.593036328379	0
12	478	1.594420328379	1
12	481	1.594796328379	0
12	500	1.631017976257	1
12	501	1.631393976257	0
12	615	2.024029386273	1
12	616	2.024413386273	0
12	647	2.032084199225	1
12	648	2.032460199225	0
12	735	2.225266364208	1
12	736	2.225650364208	0
12	772	2.282730644002	1
12	773	2.283106644002	0
12	865	2.409331523423	1
12	872	2.409715523423	0
[...]
391	644	2.032084199225	7504
391	769	2.282730644002	7504
391	996	2.557855006928	7504
391	1198	2.810906368725	7504
391	1482	3.166605523118	7504
391	1799	3.467876248665	7504
391	1859	3.507703940305	7504
391	2014	3.728448172247	7504
391	2029	3.73552950322	7504
391	2249	4.638794569293	7504
392	461	1.592628328379	397931
392	474	1.594420328379	397932
392	497	1.631017976257	397933
392	644	2.032084199225	397934
392	769	2.282730644002	397935
392	996	2.557855006928	397936
392	1198	2.810906368725	397937
392	1482	3.166605523118	397939
392	1799	3.467876248665	397940
392	1859	3.507703940305	397941
392	2014	3.728448172247	397942
392	2029	3.73552950322	397943
392	2249	4.638794569293	397944
393	467	1.593536328379	398157
393	484	1.595296328379	398158
393	504	1.631893976257	398158
393	651	2.032960199225	398158
393	780	2.283606644002	398158
393	1003	2.558731006928	398158
393	1205	2.811782368725	398158
393	1526	3.167481523118	398158
393	1806	3.468752248665	398158
393	1866	3.508579940305	398158
393	2021	3.729324172247	398158
393	2036	3.73640550322	398158
393	2256	4.639670569293	398158
394	467	1.593536328379	397931
394	484	1.595296328379	397932
394	504	1.631893976257	397933
394	651	2.032960199225	397934
394	780	2.283606644002	397935
394	1003	2.558731006928	397936
394	1205	2.811782368725	397937
394	1526	3.167481523118	397939
394	1806	3.468752248665	397940
394	1866	3.508579940305	397941
394	2021	3.729324172247	397942
394	2036	3.73640550322	397943
394	2256	4.639670569293	397944
395	467	1.593536328379	7504
395	484	1.595296328379	7503
395	504	1.631893976257	7504
395	651	2.032960199225	7504
395	780	2.283606644002	7504
395	1003	2.558731006928	7504
395	1205	2.811782368725	7504
395	1526	3.167481523118	7504
395	1806	3.468752248665	7504
395	1866	3.508579940305	7504
395	2021	3.729324172247	7504
395	2036	3.73640550322	7504
395	2256	4.639670569293	7504
396	467	1.593536328379	1
396	484	1.595296328379	0
396	491	1.630133976257	1
396	504	1.631893976257	0
396	638	2.031200199225	1
396	651	2.032960199225	0
396	763	2.281846644002	1
396	780	2.283606644002	0
396	990	2.556971006928	1
396	1003	2.558731006928	0
396	1192	2.810022368725	1
396	1205	2.811782368725	0
396	1462	3.165713523118	2
396	1526	3.167481523118	0
396	1793	3.466992248665	1
396	1806	3.468752248665	0
396	1853	3.506819940305	1
396	1866	3.508579940305	0
396	2008	3.727564172247	1
396	2021	3.729324172247	0
396	2023	3.73464550322	1
396	2036	3.73640550322	0
396	2243	4.637910569293	1
396	2256	4.639670569293	0
397	474	1.594420328379	397931
397	497	1.631017976257	397932
397	644	2.032084199225	397933
397	769	2.282730644002	397934
397	996	2.557855006928	397935
397	1198	2.810906368725	397936
397	1482	3.166605523118	397937
397	1799	3.467876248665	397939
397	1859	3.507703940305	397940
397	2014	3.728448172247	397941
397	2029	3.73552950322	397942
397	2249	4.638794569293	397943
398	474	1.594420328379	398158
398	497	1.631017976257	398158
398	644	2.032084199225	398158
398	769	2.282730644002	398158
398	996	2.557855006928	398158
398	1198	2.810906368725	398158
398	1482	3.166605523118	398158
398	1799	3.467876248665	398158
398	1859	3.507703940305	398158
398	2014	3.728448172247	398158
398	2029	3.73552950322	398158
398	2249	4.638794569293	398158
399	474	1.594420328379	0
400	474	1.594420328379	1072
401	474	1.594420328379	4294967295
402	474	1.594420328379	0
402	497	1.631017976257	0
402	644	2.032084199225	0
402	769	2.282730644002	0
402	996	2.557855006928	0
402	1198	2.810906368725	0
402	1482	3.166605523118	0
402	1799	3.467876248665	0
402	1859	3.507703940305	0
402	2014	3.728448172247	0
402	2029	3.73552950322	0
402	2249	4.638794569293	0
403	484	1.595296328379	0.00176
403	504	1.631893976257	0.00176
403	651	2.032960199225	0.00176
403	780	2.283606644002	0.00176
403	1003	2.558731006928	0.00176
403	1205	2.811782368725	0.00176
403	1526	3.167481523118	0.001768
403	1806	3.468752248665	0.00176
403	1866	3.508579940305	0.00176
403	2021	3.729324172247	0.00176
403	2036	3.73640550322	0.00176
403	2256	4.639670569293	0.00176
404	484	1.595296328379	0.00022
404	504	1.631893976257	0.0004125
404	651	2.032960199225	0.0005809375
404	780	2.283606644002	0.000728320313
404	1003	2.558731006928	0.000857280274
404	1205	2.811782368725	0.00097012024
404	1526	3.167481523118	0.00106985521
404	1806	3.468752248665	0.001156123309
404	1866	3.508579940305	0.001231607895
404	2021	3.729324172247	0.001297656908
404	2036	3.73640550322	0.001355449795
404	2256	4.639670569293	0.001406018571
405	484	1.595296328379	0.65647
405	504	1.631893976257	0.57460375
405	651	2.032960199225	0.50294671875
405	780	2.283606644002	0.440225761719
405	1003	2.558731006928	0.385326501465
405	1205	2.811782368725	0.337273528748
405	1526	3.167481523118	0.295214072625
405	1806	3.468752248665	0.258398581646
405	1866	3.508579940305	0.226174243527
405	2021	3.729324172247	0.197968512099
405	2036	3.73640550322	0.173280240973
405	2256	4.639670569293	0.151670779627
406	484	1.595296328379	2.6261
406	504	1.631893976257	2.2988275
406	651	2.032960199225	2.0123678125
406	780	2.283606644002	1.761631367189
406	1003	2.558731006928	1.542163286134
406	1205	2.811782368725	1.350064235232
406	1526	3.167481523118	1.18192614571
406	1806	3.468752248665	1.034750449893
406	1866	3.508579940305	1
406	2021	3.729324172247	1
406	2036	3.73640550322	1
406	2256	4.639670569293	1
407	484	1.595296328379	1072
407	504	1.631893976257	1608
407	651	2.032960199225	2144
407	780	2.283606644002	2680
407	1003	2.558731006928	3216
407	1205	2.811782368725	3752
407	1526	3.167481523118	4288
407	1806	3.468752248665	4824
407	1866	3.508579940305	5360
407	2021	3.729324172247	5896
407	2036	3.73640550322	6432
407	2256	4.639670569293	6968
408	484	1.595296328379	4294967295
408	504	1.631893976257	4294967295
408	651	2.032960199225	4294967295
408	780	2.283606644002	4294967295
408	1003	2.558731006928	4294967295
408	1205	2.811782368725	4294967295
408	1526	3.167481523118	4294967295
408	1806	3.468752248665	4294967295
408	1866	3.508579940305	4294967295
408	2021	3.729324172247	4294967295
408	2036	3.73640550322	4294967295
408	2256	4.639670569293	4294967295
409	484	1.595296328379	0
409	504	1.631893976257	0
409	651	2.032960199225	0
409	780	2.283606644002	0
409	1003	2.558731006928	0
409	1205	2.811782368725	0
409	1526	3.167481523118	0
409	1806	3.468752248665	0
409	1866	3.508579940305	0
409	2021	3.729324172247	0
409	2036	3.73640550322	0
409	2256	4.639670569293	0
410	536	1.787599441511	0
410	549	1.789415441511	0
410	588	1.880551680898	0
410	698	2.179099887936	0
410	713	2.183730672811	0
410	944	2.538130894254	0
410	1496	3.166605523118	0
410	1633	3.194920773461	0
410	1763	3.428050630574	0
410	1967	3.694035144994	0
411	536	1.787599441511	7504
411	549	1.789415441511	454631
411	549	1.789415441511	454631
411	588	1.880551680898	454631
411	698	2.179099887936	454631
411	713	2.183730672811	454631
411	944	2.538130894254	454631
411	1496	3.166605523118	454631
411	1633	3.194920773461	454631
411	1763	3.428050630574	454631
411	1967	3.694035144994	454631
412	536	1.787599441511	7504
412	549	1.789415441511	7504
412	588	1.880551680898	7504
412	698	2.179099887936	7504
412	713	2.183730672811	7504
412	944	2.538130894254	7504
412	1496	3.166605523118	7504
412	1633	3.194920773461	7504
412	1763	3.428050630574	7504
412	1967	3.694035144994	7504
413	536	1.787599441511	0
413	549	1.789415441511	447127
413	588	1.880551680898	447127
413	698	2.179099887936	447127
413	713	2.183730672811	447127
413	944	2.538130894254	447127
413	1496	3.166605523118	447127
413	1633	3.194920773461	447127
413	1763	3.428050630574	447127
413	1967	3.694035144994	447127
414	543	1.788507441511	454404
414	543	1.788507441511	454404
414	556	1.790299441511	454404
414	594	1.881435680898	454406
414	704	2.179983887936	454407
414	719	2.184614672811	454408
414	975	2.539398894254	454410
414	1532	3.167489523118	454411
414	1639	3.195804773461	454412
414	1769	3.428934630574	454413
414	1980	3.694919144994	454414
415	543	1.788507441511	7504
415	556	1.790299441511	7504
416	543	1.788507441511	0
416	556	1.790299441511	0
416	556	1.790299441511	1
416	594	1.881435680898	0
416	594	1.881435680898	0
416	704	2.179983887936	0
416	704	2.179983887936	0
416	719	2.184614672811	0
416	719	2.184614672811	0
416	975	2.539398894254	0
416	975	2.539398894254	0
416	1532	3.167489523118	0
416	1532	3.167489523118	0
416	1639	3.195804773461	0
416	1639	3.195804773461	0
416	1769	3.428934630574	0
416	1769	3.428934630574	0
416	1980	3.694919144994	0
416	1980	3.694919144994	0
417	543	1.788507441511	7504
417	556	1.790299441511	7503
417	594	1.881435680898	7504
417	704	2.179983887936	7504
417	719	2.184614672811	7504
417	975	2.539398894254	7504
417	1532	3.167489523118	7504
417	1639	3.195804773461	7504
417	1769	3.428934630574	7504
417	1980	3.694919144994	7504
418	543	1.788507441511	446900
418	556	1.790299441511	446901
418	594	1.881435680898	446902
418	704	2.179983887936	446903
418	719	2.184614672811	446904
418	975	2.539398894254	446906
418	1532	3.167489523118	446907
418	1639	3.195804773461	446908
418	1769	3.428934630574	446909
418	1980	3.694919144994	446910
419	549	1.789415441511	447126
419	566	1.791175441511	447127
419	601	1.882311680898	447127
419	711	2.180859887936	447127
419	726	2.185490672811	447127
419	988	2.540274894254	447127
419	1561	3.168365523118	447127
419	1646	3.196680773461	447127
419	1776	3.429810630574	447127
419	1991	3.695795144994	447127
420	549	1.789415441511	446900
420	566	1.791175441511	446901
420	601	1.882311680898	446902
420	711	2.180859887936	446903
420	726	2.185490672811	446904
420	988	2.540274894254	446906
420	1561	3.168365523118	446907
420	1646	3.196680773461	446908
420	1776	3.429810630574	446909
420	1991	3.695795144994	446910
421	549	1.789415441511	7504
421	566	1.791175441511	7503
421	601	1.882311680898	7504
421	711	2.180859887936	7504
421	726	2.185490672811	7504
421	988	2.540274894254	7504
421	1561	3.168365523118	7504
421	1646	3.196680773461	7504
421	1776	3.429810630574	7504
421	1991	3.695795144994	7504
422	549	1.789415441511	1
422	566	1.791175441511	0
422	588	1.880551680898	1
422	601	1.882311680898	0
422	698	2.179099887936	1
422	711	2.180859887936	0
422	713	2.183730672811	1
422	726	2.185490672811	0
422	944	2.538130894254	2
422	988	2.540274894254	0
422	1496	3.166605523118	1
422	1561	3.168365523118	0
422	1633	3.194920773461	1
422	1646	3.196680773461	0
422	1763	3.428050630574	1
422	1776	3.429810630574	0
422	1967	3.694035144994	1
422	1991	3.695795144994	0
423	556	1.790299441511	446900
423	594	1.881435680898	446901
423	704	2.179983887936	446902
423	719	2.184614672811	446903
423	975	2.539398894254	446904
423	1532	3.167489523118	446906
423	1639	3.195804773461	446907
423	1769	3.428934630574	446908
423	1980	3.694919144994	446909
424	556	1.790299441511	447127
424	594	1.881435680898	447127
424	704	2.179983887936	447127
424	719	2.184614672811	447127
424	975	2.539398894254	447127
424	1532	3.167489523118	447127
424	1639	3.195804773461	447127
424	1769	3.428934630574	447127
424	1980	3.694919144994	447127
425	556	1.790299441511	0
426	556	1.790299441511	1072
427	556	1.790299441511	4294967295
428	556	1.790299441511	0
428	594	1.881435680898	0
428	704	2.179983887936	0
428	719	2.184614672811	0
428	975	2.539398894254	0
428	1532	3.167489523118	0
428	1639	3.195804773461	0
428	1769	3.428934630574	0
428	1980	3.694919144994	0
429	566	1.791175441511	0.00176
429	601	1.882311680898	0.00176
429	711	2.180859887936	0.00176
429	726	2.185490672811	0.00176
429	988	2.540274894254	0.002144
429	1561	3.168365523118	0.00176
429	1646	3.196680773461	0.00176
429	1776	3.429810630574	0.00176
429	1991	3.695795144994	0.00176
430	566	1.791175441511	0.00022
430	601	1.882311680898	0.0004125
430	711	2.180859887936	0.0005809375
430	726	2.185490672811	0.000728320313
430	988	2.540274894254	0.000905280274
430	1561	3.168365523118	0.00101212024
430	1646	3.196680773461	0.00110560521
430	1776	3.429810630574	0.001187404559
430	1991	3.695795144994	0.001258978989
431	566	1.791175441511	0.65647
431	601	1.882311680898	0.57460375
431	711	2.180859887936	0.50294671875
431	726	2.185490672811	0.440225761719
431	988	2.540274894254	0.385374501465
431	1561	3.168365523118	0.337309528748
431	1646	3.196680773461	0.295239322625
431	1776	3.429810630574	0.258416206646
431	1991	3.695795144994	0.226185755245
432	566	1.791175441511	2.6261
432	601	1.882311680898	2.2988275
432	711	2.180859887936	2.0123678125
432	726	2.185490672811	1.761631367189
432	988	2.540274894254	1.542403286134
432	1561	3.168365523118	1.350250235232
432	1646	3.196680773461	1.18206289571
432	1776	3.429810630574	1.034852231143
432	1991	3.695795144994	1
433	566	1.791175441511	1072
433	601	1.882311680898	1608
433	711	2.180859887936	2144
433	726	2.185490672811	2680
433	988	2.540274894254	3216
433	1561	3.168365523118	3752
433	1646	3.196680773461	4288
433	1776	3.429810630574	4824
433	1991	3.695795144994	5360
434	566	1.791175441511	4294967295
434	601	1.882311680898	4294967295
434	711	2.180859887936	4294967295
434	726	2.185490672811	4294967295
434	988	2.540274894254	4294967295
434	1561	3.168365523118	4294967295
434	1646	3.196680773461	4294967295
434	1776	3.429810630574	4294967295
434	1991	3.695795144994	4294967295
435	566	1.791175441511	0
435	601	1.882311680898	0
435	711	2.180859887936	0
435	726	2.185490672811	0
435	988	2.540274894254	0
435	1561	3.168365523118	0
435	1646	3.196680773461	0
435	1776	3.429810630574	0
435	1991	3.695795144994	0
436	1278	2.866545464401	0
436	1319	2.868361464401	0
437	1278	2.866545464401	7504
437	1319	2.868361464401	724368
437	1319	2.868361464401	724368
438	1278	2.866545464401	7504
438	1319	2.868361464401	7504
439	1278	2.866545464401	0
439	1319	2.868361464401	716864
440	1283	2.866545464401	44
440	1322	2.868361464401	41
441	1283	2.866545464401	44
441	1322	2.868361464401	41
442	1283	2.866545464401	1
442	1283	2.866545464401	0
442	1322	2.868361464401	1
442	1322	2.868361464401	0
443	1283	2.866545464401	44
443	1322	2.868361464401	41
444	1283	2.866545464401	0
444	1322	2.868361464401	0
445	1283	2.866545464401	51
445	1322	2.868361464401	48
446	1301	2.867453464401	51
446	1327	2.869245464401	48
447	1301	2.867453464401	44
447	1327	2.869245464401	41
448	1303	2.867453464401	716636
448	1543	3.167513523118	791651
448	1544	3.167513523118	791651
449	1303	2.867453464401	0
449	1543	3.167513523118	0
449	1544	3.167513523118	0
450	1303	2.867453464401	724141
450	1303	2.867453464401	724141
450	1329	2.869245464401	724141
451	1303	2.867453464401	7504
451	1329	2.869245464401	7504
452	1303	2.867453464401	0
452	1329	2.869245464401	0
452	1329	2.869245464401	1
453	1303	2.867453464401	7504
453	1329	2.869245464401	7503
454	1303	2.867453464401	716637
454	1329	2.869245464401	716638
455	1305	2.867453464401	44
455	1333	2.869245464401	40
456	1305	2.867453464401	44
456	1333	2.869245464401	40
457	1305	2.867453464401	1
457	1305	2.867453464401	0
457	1333	2.869245464401	1
457	1333	2.869245464401	0
458	1305	2.867453464401	44
458	1333	2.869245464401	40
459	1305	2.867453464401	0
459	1333	2.869245464401	0
460	1305	2.867453464401	51
460	1333	2.869245464401	47
461	1317	2.868361464401	51
461	1337	2.870121464401	47
462	1317	2.868361464401	44
462	1337	2.870121464401	40
463	1319	2.868361464401	716863
463	1339	2.870121464401	716864
464	1319	2.868361464401	716637
464	1339	2.870121464401	716638
465	1319	2.868361464401	7504
465	1339	2.870121464401	7503
466	1319	2.868361464401	1
466	1339	2.870121464401	0
467	1329	2.869245464401	716637
468	1329	2.869245464401	716864
469	1329	2.869245464401	0
470	1329	2.869245464401	1072
471	1329	2.869245464401	4294967295
472	1329	2.869245464401	0
473	1339	2.870121464401	0.00176
474	1339	2.870121464401	0.00022
475	1339	2.870121464401	0.65647
476	1339	2.870121464401	2.6261
477	1339	2.870121464401	1072
478	1339	2.870121464401	4294967295
479	1339	2.870121464401	0
480	1494	3.166605523118	0
480	1566	3.168421523118	0
481	1494	3.166605523118	7504
481	1566	3.168421523118	799383
481	1566	3.168421523118	799383
482	1494	3.166605523118	7504
482	1566	3.168421523118	7504
483	1494	3.166605523118	0
483	1566	3.168421523118	791879
484	1497	3.166605523118	0
484	1567	3.168421523118	0
485	1497	3.166605523118	7504
485	1567	3.168421523118	799383
485	1567	3.168421523118	799383
486	1497	3.166605523118	7504
486	1567	3.168421523118	7504
487	1497	3.166605523118	0
487	1567	3.168421523118	791879
488	1504	3.166605523118	44
488	1572	3.168421523118	41
489	1504	3.166605523118	44
489	1572	3.168421523118	41
490	1504	3.166605523118	1
490	1504	3.166605523118	0
490	1572	3.168421523118	1
490	1572	3.168421523118	0
491	1504	3.166605523118	44
491	1572	3.168421523118	41
492	1504	3.166605523118	0
492	1572	3.168421523118	0
493	1504	3.166605523118	51
493	1572	3.168421523118	48
494	1506	3.166605523118	44
494	1573	3.168421523118	41
495	1506	3.166605523118	44
495	1573	3.168421523118	41
496	1506	3.166605523118	1
496	1506	3.166605523118	0
496	1573	3.168421523118	1
496	1573	3.168421523118	0
497	1506	3.166605523118	44
497	1573	3.168421523118	41
498	1506	3.166605523118	0
498	1573	3.168421523118	0
499	1506	3.166605523118	51
499	1573	3.168421523118	48
500	1539	3.167513523118	51
500	1576	3.169305523118	48
501	1539	3.167513523118	44
501	1576	3.169305523118	41
502	1540	3.167513523118	51
502	1577	3.169305523118	48
503	1540	3.167513523118	44
503	1577	3.169305523118	41
504	1543	3.167513523118	799156
504	1543	3.167513523118	799156
504	1580	3.169305523118	799156
505	1543	3.167513523118	7504
505	1580	3.169305523118	7504
506	1543	3.167513523118	0
506	1580	3.169305523118	0
506	1580	3.169305523118	1
507	1543	3.167513523118	7504
507	1580	3.169305523118	7503
508	1543	3.167513523118	791652
508	1580	3.169305523118	791653
509	1544	3.167513523118	799156
509	1544	3.167513523118	799156
509	1581	3.169305523118	799156
510	1544	3.167513523118	7504
510	1581	3.169305523118	7504
511	1544	3.167513523118	0
511	1581	3.169305523118	0
511	1581	3.169305523118	1
512	1544	3.167513523118	7504
512	1581	3.169305523118	7503
513	1544	3.167513523118	791652
513	1581	3.169305523118	791653
514	1547	3.167513523118	44
514	1587	3.169305523118	40
515	1547	3.167513523118	44
515	1587	3.169305523118	40
516	1547	3.167513523118	1
516	1547	3.167513523118	0
516	1587	3.169305523118	1
516	1587	3.169305523118	0
517	1547	3.167513523118	44
517	1587	3.169305523118	40
518	1547	3.167513523118	0
518	1587	3.169305523118	0
519	1547	3.167513523118	51
519	1587	3.169305523118	47
520	1548	3.167513523118	44
520	1589	3.169305523118	40
521	1548	3.167513523118	44
521	1589	3.169305523118	40
522	1548	3.167513523118	1
522	1548	3.167513523118	0
522	1589	3.169305523118	1
522	1589	3.169305523118	0
523	1548	3.167513523118	44
523	1589	3.169305523118	40
524	1548	3.167513523118	0
524	1589	3.169305523118	0
525	1548	3.167513523118	51
525	1589	3.169305523118	47
526	1562	3.168421523118	51
526	1596	3.170181523118	47
527	1562	3.168421523118	44
527	1596	3.170181523118	40
528	1563	3.168421523118	51
528	1597	3.170181523118	47
529	1563	3.168421523118	44
529	1597	3.170181523118	40
530	1566	3.168421523118	791878
530	1600	3.170181523118	791879
531	1566	3.168421523118	791652
531	1600	3.170181523118	791653
532	1566	3.168421523118	7504
532	1600	3.170181523118	7503
533	1566	3.168421523118	1
533	1600	3.170181523118	0
534	1567	3.168421523118	791878
534	1601	3.170181523118	791879
535	1567	3.168421523118	791652
535	1601	3.170181523118	791653
536	1567	3.168421523118	7504
536	1601	3.170181523118	7503
537	1567	3.168421523118	1
537	1601	3.170181523118	0
538	1580	3.169305523118	791652
539	1580	3.169305523118	791879
540	1580	3.169305523118	0
541	1580	3.169305523118	1072
542	1580	3.169305523118	4294967295
543	1580	3.169305523118	0
544	1581	3.169305523118	791652
545	1581	3.169305523118	791879
546	1581	3.169305523118	0
547	1581	3.169305523118	1072
548	1581	3.169305523118	4294967295
549	1581	3.169305523118	0
550	1600	3.170181523118	0.00176
551	1600	3.170181523118	0.00022
552	1600	3.170181523118	0.65647
553	1600	3.170181523118	2.6261
554	1600	3.170181523118	1072
555	1600	3.170181523118	4294967295
556	1600	3.170181523118	0
557	1601	3.170181523118	0.00176
558	1601	3.170181523118	0.00022
559	1601	3.170181523118	0.65647
560	1601	3.170181523118	2.6261
561	1601	3.170181523118	1072
562	1601	3.170181523118	4294967295
563	1601	3.170181523118	0

