file 27853117 1643643170                                        
version 2
run BROADCAST20-0-20220131-16:31:39-15128
attr configname BROADCAST20
attr datetime 20220131-16:31:39
attr experiment BROADCAST20
attr inifile omnetpp.ini
attr iterationvars ""
attr iterationvarsf ""
attr measurement ""
attr network scenario
attr processid 15128
attr repetition 0
attr replication #0
attr resultdir results
attr runnumber 0
attr seedset 0
param *.n 20
param **.client[*].app[0].nPar 20
param **.client[15].app[0].leave 1.0
param **.client[14].app[0].leave 4.0
param **.client[13].app[0].leave 9.0
param **.client[12].app[0].leave 14.0
param **.client[11].app[0].leave 20.0
param **.client[16].app[0].join 2.5
param **.client[17].app[0].join 6.3
param **.client[18].app[0].join 15.5
param **.client[19].app[0].join 33.3
param **.client[20].app[0].join 41.5
param **.client[16].app[0].broadcast 15.3
param **.client[17].app[0].broadcast 18.3
param **.client[0].app[0].broadcast 1.8
param **.client[1].app[0].broadcast 10.1
param **.ppp[*].ppp.queue.typename "\"DropTailQueue\""
param **.tcp.typename "\"Tcp\""
param **.tcp.nagleEnabled false
param **.client[*].app[*].fPar 0
param **.numApps 1
param **.client[*].app[*].typename "\"Node\""
param **.client[*].app[0].localPort index+1000
param **.client[*].app[0].localPortL 1234
param **.client[*].app[0].connectAddress "\"\""
param **.client[*].app[0].connectPort 1234

vector 0 scenario.client[0].ppp[0].ppp transmissionState:vector ETV
attr interpolationmode sample-hold
attr source transmissionStateChanged
attr title "tx state, vector"
vector 1 scenario.client[0].ppp[1].ppp transmissionState:vector ETV
attr interpolationmode sample-hold
attr source transmissionStateChanged
attr title "tx state, vector"
vector 2 scenario.client[0].ppp[2].ppp transmissionState:vector ETV
attr interpolationmode sample-hold
attr source transmissionStateChanged
attr title "tx state, vector"
vector 3 scenario.client[0].ppp[3].ppp transmissionState:vector ETV
attr interpolationmode sample-hold
attr source transmissionStateChanged
attr title "tx state, vector"
vector 4 scenario.client[0].ppp[4].ppp transmissionState:vector ETV
attr interpolationmode sample-hold
attr source transmissionStateChanged
attr title "tx state, vector"
vector 5 scenario.client[0].ppp[5].ppp transmissionState:vector ETV
attr interpolationmode sample-hold
attr source transmissionStateChanged
attr title "tx state, vector"
vector 6 scenario.client[0].ppp[6].ppp transmissionState:vector ETV
attr interpolationmode sample-hold
attr source transmissionStateChanged
attr title "tx state, vector"
vector 7 scenario.client[0].ppp[7].ppp transmissionState:vector ETV
attr interpolationmode sample-hold
attr source transmissionStateChanged
attr title "tx state, vector"
vector 8 scenario.client[0].ppp[8].ppp transmissionState:vector ETV
attr interpolationmode sample-hold
attr source transmissionStateChanged
attr title "tx state, vector"
vector 9 scenario.client[0].ppp[9].ppp transmissionState:vector ETV
attr interpolationmode sample-hold
attr source transmissionStateChanged
attr title "tx state, vector"
vector 10 scenario.client[0].ppp[10].ppp transmissionState:vector ETV
attr interpolationmode sample-hold
attr source transmissionStateChanged
attr title "tx state, vector"
vector 11 scenario.client[0].ppp[11].ppp transmissionState:vector ETV
attr interpolationmode sample-hold
attr source transmissionStateChanged
attr title "tx state, vector"
vector 12 scenario.client[0].ppp[12].ppp transmissionState:vector ETV
attr interpolationmode sample-hold
attr source transmissionStateChanged
attr title "tx state, vector"
vector 13 scenario.client[0].ppp[13].ppp transmissionState:vector ETV
attr interpolationmode sample-hold
attr source transmissionStateChanged
attr title "tx state, vector"
vector 14 scenario.client[0].ppp[14].ppp transmissionState:vector ETV
attr interpolationmode sample-hold
attr source transmissionStateChanged
attr title "tx state, vector"
vector 15 scenario.client[0].ppp[15].ppp transmissionState:vector ETV
attr interpolationmode sample-hold
attr source transmissionStateChanged
attr title "tx state, vector"
vector 16 scenario.client[0].ppp[16].ppp transmissionState:vector ETV
attr interpolationmode sample-hold
attr source transmissionStateChanged
attr title "tx state, vector"
vector 17 scenario.client[0].ppp[17].ppp transmissionState:vector ETV
attr interpolationmode sample-hold
attr source transmissionStateChanged
attr title "tx state, vector"
vector 18 scenario.client[0].ppp[18].ppp transmissionState:vector ETV
attr interpolationmode sample-hold
attr source transmissionStateChanged
attr title "tx state, vector"
vector 19 scenario.client[1].ppp[0].ppp transmissionState:vector ETV
attr interpolationmode sample-hold
attr source transmissionStateChanged
attr title "tx state, vector"
vector 20 scenario.client[1].ppp[1].ppp transmissionState:vector ETV
attr interpolationmode sample-hold
attr source transmissionStateChanged
attr title "tx state, vector"
vector 21 scenario.client[1].ppp[2].ppp transmissionState:vector ETV
attr interpolationmode sample-hold
attr source transmissionStateChanged
attr title "tx state, vector"
vector 22 scenario.client[1].ppp[3].ppp transmissionState:vector ETV
attr interpolationmode sample-hold
attr source transmissionStateChanged
attr title "tx state, vector"
vector 23 scenario.client[1].ppp[4].ppp transmissionState:vector ETV
attr interpolationmode sample-hold
attr source transmissionStateChanged
attr title "tx state, vector"
vector 24 scenario.client[1].ppp[5].ppp transmissionState:vector ETV
attr interpolationmode sample-hold
attr source transmissionStateChanged
attr title "tx state, vector"
vector 25 scenario.client[1].ppp[6].ppp transmissionState:vector ETV
attr interpolationmode sample-hold
attr source transmissionStateChanged
attr title "tx state, vector"
vector 26 scenario.client[1].ppp[7].ppp transmissionState:vector ETV
attr interpolationmode sample-hold
attr source transmissionStateChanged
attr title "tx state, vector"
vector 27 scenario.client[1].ppp[8].ppp transmissionState:vector ETV
attr interpolationmode sample-hold
attr source transmissionStateChanged
attr title "tx state, vector"
vector 28 scenario.client[1].ppp[9].ppp transmissionState:vector ETV
attr interpolationmode sample-hold
attr source transmissionStateChanged
attr title "tx state, vector"
vector 29 scenario.client[1].ppp[10].ppp transmissionState:vector ETV
attr interpolationmode sample-hold
attr source transmissionStateChanged
attr title "tx state, vector"
vector 30 scenario.client[1].ppp[11].ppp transmissionState:vector ETV
attr interpolationmode sample-hold
attr source transmissionStateChanged
attr title "tx state, vector"
vector 31 scenario.client[1].ppp[12].ppp transmissionState:vector ETV
attr interpolationmode sample-hold
attr source transmissionStateChanged
attr title "tx state, vector"
vector 32 scenario.client[1].ppp[13].ppp transmissionState:vector ETV
attr interpolationmode sample-hold
attr source transmissionStateChanged
attr title "tx state, vector"
vector 33 scenario.client[1].ppp[14].ppp transmissionState:vector ETV
attr interpolationmode sample-hold
attr source transmissionStateChanged
attr title "tx state, vector"
vector 34 scenario.client[1].ppp[15].ppp transmissionState:vector ETV
attr interpolationmode sample-hold
attr source transmissionStateChanged
attr title "tx state, vector"
vector 35 scenario.client[1].ppp[16].ppp transmissionState:vector ETV
attr interpolationmode sample-hold
attr source transmissionStateChanged
attr title "tx state, vector"
vector 36 scenario.client[1].ppp[17].ppp transmissionState:vector ETV
attr interpolationmode sample-hold
attr source transmissionStateChanged
attr title "tx state, vector"
vector 37 scenario.client[1].ppp[18].ppp transmissionState:vector ETV
attr interpolationmode sample-hold
attr source transmissionStateChanged
attr title "tx state, vector"
vector 38 scenario.client[2].ppp[0].ppp transmissionState:vector ETV
attr interpolationmode sample-hold
attr source transmissionStateChanged
attr title "tx state, vector"
vector 39 scenario.client[2].ppp[1].ppp transmissionState:vector ETV
attr interpolationmode sample-hold
attr source transmissionStateChanged
attr title "tx state, vector"
vector 40 scenario.client[2].ppp[2].ppp transmissionState:vector ETV
attr interpolationmode sample-hold
attr source transmissionStateChanged
attr title "tx state, vector"
vector 41 scenario.client[2].ppp[3].ppp transmissionState:vector ETV
attr interpolationmode sample-hold
attr source transmissionStateChanged
attr title "tx state, vector"
vector 42 scenario.client[2].ppp[4].ppp transmissionState:vector ETV
attr interpolationmode sample-hold
attr source transmissionStateChanged
attr title "tx state, vector"
vector 43 scenario.client[2].ppp[5].ppp transmissionState:vector ETV
attr interpolationmode sample-hold
attr source transmissionStateChanged
attr title "tx state, vector"
vector 44 scenario.client[2].ppp[6].ppp transmissionState:vector ETV
attr interpolationmode sample-hold
attr source transmissionStateChanged
attr title "tx state, vector"
vector 45 scenario.client[2].ppp[7].ppp transmissionState:vector ETV
attr interpolationmode sample-hold
attr source transmissionStateChanged
attr title "tx state, vector"
vector 46 scenario.client[2].ppp[8].ppp transmissionState:vector ETV
attr interpolationmode sample-hold
attr source transmissionStateChanged
attr title "tx state, vector"
vector 47 scenario.client[2].ppp[9].ppp transmissionState:vector ETV
attr interpolationmode sample-hold
attr source transmissionStateChanged
attr title "tx state, vector"
vector 48 scenario.client[2].ppp[10].ppp transmissionState:vector ETV
attr interpolationmode sample-hold
attr source transmissionStateChanged
attr title "tx state, vector"
vector 49 scenario.client[2].ppp[11].ppp transmissionState:vector ETV
attr interpolationmode sample-hold
attr source transmissionStateChanged
attr title "tx state, vector"
vector 50 scenario.client[2].ppp[12].ppp transmissionState:vector ETV
attr interpolationmode sample-hold
attr source transmissionStateChanged
attr title "tx state, vector"
vector 51 scenario.client[2].ppp[13].ppp transmissionState:vector ETV
attr interpolationmode sample-hold
attr source transmissionStateChanged
attr title "tx state, vector"
vector 52 scenario.client[2].ppp[14].ppp transmissionState:vector ETV
attr interpolationmode sample-hold
attr source transmissionStateChanged
attr title "tx state, vector"
vector 53 scenario.client[2].ppp[15].ppp transmissionState:vector ETV
attr interpolationmode sample-hold
attr source transmissionStateChanged
attr title "tx state, vector"
vector 54 scenario.client[2].ppp[16].ppp transmissionState:vector ETV
attr interpolationmode sample-hold
attr source transmissionStateChanged
attr title "tx state, vector"
vector 55 scenario.client[2].ppp[17].ppp transmissionState:vector ETV
attr interpolationmode sample-hold
attr source transmissionStateChanged
attr title "tx state, vector"
vector 56 scenario.client[2].ppp[18].ppp transmissionState:vector ETV
attr interpolationmode sample-hold
attr source transmissionStateChanged
attr title "tx state, vector"
vector 57 scenario.client[3].ppp[0].ppp transmissionState:vector ETV
attr interpolationmode sample-hold
attr source transmissionStateChanged
attr title "tx state, vector"
vector 58 scenario.client[3].ppp[1].ppp transmissionState:vector ETV
attr interpolationmode sample-hold
attr source transmissionStateChanged
attr title "tx state, vector"
vector 59 scenario.client[3].ppp[2].ppp transmissionState:vector ETV
attr interpolationmode sample-hold
attr source transmissionStateChanged
attr title "tx state, vector"
vector 60 scenario.client[3].ppp[3].ppp transmissionState:vector ETV
attr interpolationmode sample-hold
attr source transmissionStateChanged
attr title "tx state, vector"
vector 61 scenario.client[3].ppp[4].ppp transmissionState:vector ETV
attr interpolationmode sample-hold
attr source transmissionStateChanged
attr title "tx state, vector"
vector 62 scenario.client[3].ppp[5].ppp transmissionState:vector ETV
attr interpolationmode sample-hold
attr source transmissionStateChanged
attr title "tx state, vector"
vector 63 scenario.client[3].ppp[6].ppp transmissionState:vector ETV
attr interpolationmode sample-hold
attr source transmissionStateChanged
attr title "tx state, vector"
vector 64 scenario.client[3].ppp[7].ppp transmissionState:vector ETV
attr interpolationmode sample-hold
attr source transmissionStateChanged
attr title "tx state, vector"
vector 65 scenario.client[3].ppp[8].ppp transmissionState:vector ETV
attr interpolationmode sample-hold
attr source transmissionStateChanged
attr title "tx state, vector"
vector 66 scenario.client[3].ppp[9].ppp transmissionState:vector ETV
attr interpolationmode sample-hold
attr source transmissionStateChanged
attr title "tx state, vector"
vector 67 scenario.client[3].ppp[10].ppp transmissionState:vector ETV
attr interpolationmode sample-hold
attr source transmissionStateChanged
attr title "tx state, vector"
vector 68 scenario.client[3].ppp[11].ppp transmissionState:vector ETV
attr interpolationmode sample-hold
attr source transmissionStateChanged
attr title "tx state, vector"
vector 69 scenario.client[3].ppp[12].ppp transmissionState:vector ETV
attr interpolationmode sample-hold
attr source transmissionStateChanged
attr title "tx state, vector"
vector 70 scenario.client[3].ppp[13].ppp transmissionState:vector ETV
attr interpolationmode sample-hold
attr source transmissionStateChanged
attr title "tx state, vector"
vector 71 scenario.client[3].ppp[14].ppp transmissionState:vector ETV
attr interpolationmode sample-hold
attr source transmissionStateChanged
attr title "tx state, vector"
vector 72 scenario.client[3].ppp[15].ppp transmissionState:vector ETV
attr interpolationmode sample-hold
attr source transmissionStateChanged
attr title "tx state, vector"
vector 73 scenario.client[3].ppp[16].ppp transmissionState:vector ETV
attr interpolationmode sample-hold
attr source transmissionStateChanged
attr title "tx state, vector"
vector 74 scenario.client[3].ppp[17].ppp transmissionState:vector ETV
attr interpolationmode sample-hold
attr source transmissionStateChanged
attr title "tx state, vector"
vector 75 scenario.client[3].ppp[18].ppp transmissionState:vector ETV
attr interpolationmode sample-hold
attr source transmissionStateChanged
attr title "tx state, vector"
vector 76 scenario.client[4].ppp[0].ppp transmissionState:vector ETV
attr interpolationmode sample-hold
attr source transmissionStateChanged
attr title "tx state, vector"
vector 77 scenario.client[4].ppp[1].ppp transmissionState:vector ETV
attr interpolationmode sample-hold
attr source transmissionStateChanged
attr title "tx state, vector"
vector 78 scenario.client[4].ppp[2].ppp transmissionState:vector ETV
attr interpolationmode sample-hold
attr source transmissionStateChanged
attr title "tx state, vector"
vector 79 scenario.client[4].ppp[3].ppp transmissionState:vector ETV
attr interpolationmode sample-hold
attr source transmissionStateChanged
attr title "tx state, vector"
vector 80 scenario.client[4].ppp[4].ppp transmissionState:vector ETV
attr interpolationmode sample-hold
attr source transmissionStateChanged
attr title "tx state, vector"
vector 81 scenario.client[4].ppp[5].ppp transmissionState:vector ETV
attr interpolationmode sample-hold
attr source transmissionStateChanged
attr title "tx state, vector"
vector 82 scenario.client[4].ppp[6].ppp transmissionState:vector ETV
attr interpolationmode sample-hold
attr source transmissionStateChanged
attr title "tx state, vector"
vector 83 scenario.client[4].ppp[7].ppp transmissionState:vector ETV
attr interpolationmode sample-hold
attr source transmissionStateChanged
attr title "tx state, vector"
vector 84 scenario.client[4].ppp[8].ppp transmissionState:vector ETV
attr interpolationmode sample-hold
attr source transmissionStateChanged
attr title "tx state, vector"
vector 85 scenario.client[4].ppp[9].ppp transmissionState:vector ETV
attr interpolationmode sample-hold
attr source transmissionStateChanged
attr title "tx state, vector"
vector 86 scenario.client[4].ppp[10].ppp transmissionState:vector ETV
attr interpolationmode sample-hold
attr source transmissionStateChanged
attr title "tx state, vector"
vector 87 scenario.client[4].ppp[11].ppp transmissionState:vector ETV
attr interpolationmode sample-hold
attr source transmissionStateChanged
attr title "tx state, vector"
vector 88 scenario.client[4].ppp[12].ppp transmissionState:vector ETV
attr interpolationmode sample-hold
attr source transmissionStateChanged
attr title "tx state, vector"
vector 89 scenario.client[4].ppp[13].ppp transmissionState:vector ETV
attr interpolationmode sample-hold
attr source transmissionStateChanged
attr title "tx state, vector"
vector 90 scenario.client[4].ppp[14].ppp transmissionState:vector ETV
attr interpolationmode sample-hold
attr source transmissionStateChanged
attr title "tx state, vector"
vector 91 scenario.client[4].ppp[15].ppp transmissionState:vector ETV
attr interpolationmode sample-hold
attr source transmissionStateChanged
attr title "tx state, vector"
vector 92 scenario.client[4].ppp[16].ppp transmissionState:vector ETV
attr interpolationmode sample-hold
attr source transmissionStateChanged
attr title "tx state, vector"
vector 93 scenario.client[4].ppp[17].ppp transmissionState:vector ETV
attr interpolationmode sample-hold
attr source transmissionStateChanged
attr title "tx state, vector"
vector 94 scenario.client[4].ppp[18].ppp transmissionState:vector ETV
attr interpolationmode sample-hold
attr source transmissionStateChanged
attr title "tx state, vector"
vector 95 scenario.client[5].ppp[0].ppp transmissionState:vector ETV
attr interpolationmode sample-hold
attr source transmissionStateChanged
attr title "tx state, vector"
vector 96 scenario.client[5].ppp[1].ppp transmissionState:vector ETV
attr interpolationmode sample-hold
attr source transmissionStateChanged
attr title "tx state, vector"
vector 97 scenario.client[5].ppp[2].ppp transmissionState:vector ETV
attr interpolationmode sample-hold
attr source transmissionStateChanged
attr title "tx state, vector"
vector 98 scenario.client[5].ppp[3].ppp transmissionState:vector ETV
attr interpolationmode sample-hold
attr source transmissionStateChanged
attr title "tx state, vector"
vector 99 scenario.client[5].ppp[4].ppp transmissionState:vector ETV
attr interpolationmode sample-hold
attr source transmissionStateChanged
attr title "tx state, vector"
vector 100 scenario.client[5].ppp[5].ppp transmissionState:vector ETV
attr interpolationmode sample-hold
attr source transmissionStateChanged
attr title "tx state, vector"
vector 101 scenario.client[5].ppp[6].ppp transmissionState:vector ETV
attr interpolationmode sample-hold
attr source transmissionStateChanged
attr title "tx state, vector"
vector 102 scenario.client[5].ppp[7].ppp transmissionState:vector ETV
attr interpolationmode sample-hold
attr source transmissionStateChanged
attr title "tx state, vector"
vector 103 scenario.client[5].ppp[8].ppp transmissionState:vector ETV
attr interpolationmode sample-hold
attr source transmissionStateChanged
attr title "tx state, vector"
vector 104 scenario.client[5].ppp[9].ppp transmissionState:vector ETV
attr interpolationmode sample-hold
attr source transmissionStateChanged
attr title "tx state, vector"
vector 105 scenario.client[5].ppp[10].ppp transmissionState:vector ETV
attr interpolationmode sample-hold
attr source transmissionStateChanged
attr title "tx state, vector"
vector 106 scenario.client[5].ppp[11].ppp transmissionState:vector ETV
attr interpolationmode sample-hold
attr source transmissionStateChanged
attr title "tx state, vector"
vector 107 scenario.client[5].ppp[12].ppp transmissionState:vector ETV
attr interpolationmode sample-hold
attr source transmissionStateChanged
attr title "tx state, vector"
vector 108 scenario.client[5].ppp[13].ppp transmissionState:vector ETV
attr interpolationmode sample-hold
attr source transmissionStateChanged
attr title "tx state, vector"
vector 109 scenario.client[5].ppp[14].ppp transmissionState:vector ETV
attr interpolationmode sample-hold
attr source transmissionStateChanged
attr title "tx state, vector"
vector 110 scenario.client[5].ppp[15].ppp transmissionState:vector ETV
attr interpolationmode sample-hold
attr source transmissionStateChanged
attr title "tx state, vector"
vector 111 scenario.client[5].ppp[16].ppp transmissionState:vector ETV
attr interpolationmode sample-hold
attr source transmissionStateChanged
attr title "tx state, vector"
vector 112 scenario.client[5].ppp[17].ppp transmissionState:vector ETV
attr interpolationmode sample-hold
attr source transmissionStateChanged
attr title "tx state, vector"
vector 113 scenario.client[5].ppp[18].ppp transmissionState:vector ETV
attr interpolationmode sample-hold
attr source transmissionStateChanged
attr title "tx state, vector"
vector 114 scenario.client[6].ppp[0].ppp transmissionState:vector ETV
attr interpolationmode sample-hold
attr source transmissionStateChanged
attr title "tx state, vector"
vector 115 scenario.client[6].ppp[1].ppp transmissionState:vector ETV
attr interpolationmode sample-hold
attr source transmissionStateChanged
attr title "tx state, vector"
vector 116 scenario.client[6].ppp[2].ppp transmissionState:vector ETV
attr interpolationmode sample-hold
attr source transmissionStateChanged
attr title "tx state, vector"
vector 117 scenario.client[6].ppp[3].ppp transmissionState:vector ETV
attr interpolationmode sample-hold
attr source transmissionStateChanged
attr title "tx state, vector"
vector 118 scenario.client[6].ppp[4].ppp transmissionState:vector ETV
attr interpolationmode sample-hold
attr source transmissionStateChanged
attr title "tx state, vector"
vector 119 scenario.client[6].ppp[5].ppp transmissionState:vector ETV
attr interpolationmode sample-hold
attr source transmissionStateChanged
attr title "tx state, vector"
vector 120 scenario.client[6].ppp[6].ppp transmissionState:vector ETV
attr interpolationmode sample-hold
attr source transmissionStateChanged
attr title "tx state, vector"
vector 121 scenario.client[6].ppp[7].ppp transmissionState:vector ETV
attr interpolationmode sample-hold
attr source transmissionStateChanged
attr title "tx state, vector"
vector 122 scenario.client[6].ppp[8].ppp transmissionState:vector ETV
attr interpolationmode sample-hold
attr source transmissionStateChanged
attr title "tx state, vector"
vector 123 scenario.client[6].ppp[9].ppp transmissionState:vector ETV
attr interpolationmode sample-hold
attr source transmissionStateChanged
attr title "tx state, vector"
vector 124 scenario.client[6].ppp[10].ppp transmissionState:vector ETV
attr interpolationmode sample-hold
attr source transmissionStateChanged
attr title "tx state, vector"
vector 125 scenario.client[6].ppp[11].ppp transmissionState:vector ETV
attr interpolationmode sample-hold
attr source transmissionStateChanged
attr title "tx state, vector"
vector 126 scenario.client[6].ppp[12].ppp transmissionState:vector ETV
attr interpolationmode sample-hold
attr source transmissionStateChanged
attr title "tx state, vector"
vector 127 scenario.client[6].ppp[13].ppp transmissionState:vector ETV
attr interpolationmode sample-hold
attr source transmissionStateChanged
attr title "tx state, vector"
vector 128 scenario.client[6].ppp[14].ppp transmissionState:vector ETV
attr interpolationmode sample-hold
attr source transmissionStateChanged
attr title "tx state, vector"
vector 129 scenario.client[6].ppp[15].ppp transmissionState:vector ETV
attr interpolationmode sample-hold
attr source transmissionStateChanged
attr title "tx state, vector"
vector 130 scenario.client[6].ppp[16].ppp transmissionState:vector ETV
attr interpolationmode sample-hold
attr source transmissionStateChanged
attr title "tx state, vector"
vector 131 scenario.client[6].ppp[17].ppp transmissionState:vector ETV
attr interpolationmode sample-hold
attr source transmissionStateChanged
attr title "tx state, vector"
vector 132 scenario.client[6].ppp[18].ppp transmissionState:vector ETV
attr interpolationmode sample-hold
attr source transmissionStateChanged
attr title "tx state, vector"
vector 133 scenario.client[7].ppp[0].ppp transmissionState:vector ETV
attr interpolationmode sample-hold
attr source transmissionStateChanged
attr title "tx state, vector"
vector 134 scenario.client[7].ppp[1].ppp transmissionState:vector ETV
attr interpolationmode sample-hold
attr source transmissionStateChanged
attr title "tx state, vector"
vector 135 scenario.client[7].ppp[2].ppp transmissionState:vector ETV
attr interpolationmode sample-hold
attr source transmissionStateChanged
attr title "tx state, vector"
vector 136 scenario.client[7].ppp[3].ppp transmissionState:vector ETV
attr interpolationmode sample-hold
attr source transmissionStateChanged
attr title "tx state, vector"
vector 137 scenario.client[7].ppp[4].ppp transmissionState:vector ETV
attr interpolationmode sample-hold
attr source transmissionStateChanged
attr title "tx state, vector"
vector 138 scenario.client[7].ppp[5].ppp transmissionState:vector ETV
attr interpolationmode sample-hold
attr source transmissionStateChanged
attr title "tx state, vector"
vector 139 scenario.client[7].ppp[6].ppp transmissionState:vector ETV
attr interpolationmode sample-hold
attr source transmissionStateChanged
attr title "tx state, vector"
vector 140 scenario.client[7].ppp[7].ppp transmissionState:vector ETV
attr interpolationmode sample-hold
attr source transmissionStateChanged
attr title "tx state, vector"
vector 141 scenario.client[7].ppp[8].ppp transmissionState:vector ETV
attr interpolationmode sample-hold
attr source transmissionStateChanged
attr title "tx state, vector"
vector 142 scenario.client[7].ppp[9].ppp transmissionState:vector ETV
attr interpolationmode sample-hold
attr source transmissionStateChanged
attr title "tx state, vector"
vector 143 scenario.client[7].ppp[10].ppp transmissionState:vector ETV
attr interpolationmode sample-hold
attr source transmissionStateChanged
attr title "tx state, vector"
vector 144 scenario.client[7].ppp[11].ppp transmissionState:vector ETV
attr interpolationmode sample-hold
attr source transmissionStateChanged
attr title "tx state, vector"
vector 145 scenario.client[7].ppp[12].ppp transmissionState:vector ETV
attr interpolationmode sample-hold
attr source transmissionStateChanged
attr title "tx state, vector"
vector 146 scenario.client[7].ppp[13].ppp transmissionState:vector ETV
attr interpolationmode sample-hold
attr source transmissionStateChanged
attr title "tx state, vector"
vector 147 scenario.client[7].ppp[14].ppp transmissionState:vector ETV
attr interpolationmode sample-hold
attr source transmissionStateChanged
attr title "tx state, vector"
vector 148 scenario.client[7].ppp[15].ppp transmissionState:vector ETV
attr interpolationmode sample-hold
attr source transmissionStateChanged
attr title "tx state, vector"
vector 149 scenario.client[7].ppp[16].ppp transmissionState:vector ETV
attr interpolationmode sample-hold
attr source transmissionStateChanged
attr title "tx state, vector"
vector 150 scenario.client[7].ppp[17].ppp transmissionState:vector ETV
attr interpolationmode sample-hold
attr source transmissionStateChanged
attr title "tx state, vector"
vector 151 scenario.client[7].ppp[18].ppp transmissionState:vector ETV
attr interpolationmode sample-hold
attr source transmissionStateChanged
attr title "tx state, vector"
vector 152 scenario.client[8].ppp[0].ppp transmissionState:vector ETV
attr interpolationmode sample-hold
attr source transmissionStateChanged
attr title "tx state, vector"
vector 153 scenario.client[8].ppp[1].ppp transmissionState:vector ETV
attr interpolationmode sample-hold
attr source transmissionStateChanged
attr title "tx state, vector"
vector 154 scenario.client[8].ppp[2].ppp transmissionState:vector ETV
attr interpolationmode sample-hold
attr source transmissionStateChanged
attr title "tx state, vector"
vector 155 scenario.client[8].ppp[3].ppp transmissionState:vector ETV
attr interpolationmode sample-hold
attr source transmissionStateChanged
attr title "tx state, vector"
vector 156 scenario.client[8].ppp[4].ppp transmissionState:vector ETV
attr interpolationmode sample-hold
attr source transmissionStateChanged
attr title "tx state, vector"
vector 157 scenario.client[8].ppp[5].ppp transmissionState:vector ETV
attr interpolationmode sample-hold
attr source transmissionStateChanged
attr title "tx state, vector"
vector 158 scenario.client[8].ppp[6].ppp transmissionState:vector ETV
attr interpolationmode sample-hold
attr source transmissionStateChanged
attr title "tx state, vector"
vector 159 scenario.client[8].ppp[7].ppp transmissionState:vector ETV
attr interpolationmode sample-hold
attr source transmissionStateChanged
attr title "tx state, vector"
vector 160 scenario.client[8].ppp[8].ppp transmissionState:vector ETV
attr interpolationmode sample-hold
attr source transmissionStateChanged
attr title "tx state, vector"
vector 161 scenario.client[8].ppp[9].ppp transmissionState:vector ETV
attr interpolationmode sample-hold
attr source transmissionStateChanged
attr title "tx state, vector"
vector 162 scenario.client[8].ppp[10].ppp transmissionState:vector ETV
attr interpolationmode sample-hold
attr source transmissionStateChanged
attr title "tx state, vector"
vector 163 scenario.client[8].ppp[11].ppp transmissionState:vector ETV
attr interpolationmode sample-hold
attr source transmissionStateChanged
attr title "tx state, vector"
vector 164 scenario.client[8].ppp[12].ppp transmissionState:vector ETV
attr interpolationmode sample-hold
attr source transmissionStateChanged
attr title "tx state, vector"
vector 165 scenario.client[8].ppp[13].ppp transmissionState:vector ETV
attr interpolationmode sample-hold
attr source transmissionStateChanged
attr title "tx state, vector"
vector 166 scenario.client[8].ppp[14].ppp transmissionState:vector ETV
attr interpolationmode sample-hold
attr source transmissionStateChanged
attr title "tx state, vector"
vector 167 scenario.client[8].ppp[15].ppp transmissionState:vector ETV
attr interpolationmode sample-hold
attr source transmissionStateChanged
attr title "tx state, vector"
vector 168 scenario.client[8].ppp[16].ppp transmissionState:vector ETV
attr interpolationmode sample-hold
attr source transmissionStateChanged
attr title "tx state, vector"
vector 169 scenario.client[8].ppp[17].ppp transmissionState:vector ETV
attr interpolationmode sample-hold
attr source transmissionStateChanged
attr title "tx state, vector"
vector 170 scenario.client[8].ppp[18].ppp transmissionState:vector ETV
attr interpolationmode sample-hold
attr source transmissionStateChanged
attr title "tx state, vector"
vector 171 scenario.client[9].ppp[0].ppp transmissionState:vector ETV
attr interpolationmode sample-hold
attr source transmissionStateChanged
attr title "tx state, vector"
vector 172 scenario.client[9].ppp[1].ppp transmissionState:vector ETV
attr interpolationmode sample-hold
attr source transmissionStateChanged
attr title "tx state, vector"
vector 173 scenario.client[9].ppp[2].ppp transmissionState:vector ETV
attr interpolationmode sample-hold
attr source transmissionStateChanged
attr title "tx state, vector"
vector 174 scenario.client[9].ppp[3].ppp transmissionState:vector ETV
attr interpolationmode sample-hold
attr source transmissionStateChanged
attr title "tx state, vector"
vector 175 scenario.client[9].ppp[4].ppp transmissionState:vector ETV
attr interpolationmode sample-hold
attr source transmissionStateChanged
attr title "tx state, vector"
vector 176 scenario.client[9].ppp[5].ppp transmissionState:vector ETV
attr interpolationmode sample-hold
attr source transmissionStateChanged
attr title "tx state, vector"
vector 177 scenario.client[9].ppp[6].ppp transmissionState:vector ETV
attr interpolationmode sample-hold
attr source transmissionStateChanged
attr title "tx state, vector"
vector 178 scenario.client[9].ppp[7].ppp transmissionState:vector ETV
attr interpolationmode sample-hold
attr source transmissionStateChanged
attr title "tx state, vector"
vector 179 scenario.client[9].ppp[8].ppp transmissionState:vector ETV
attr interpolationmode sample-hold
attr source transmissionStateChanged
attr title "tx state, vector"
vector 180 scenario.client[9].ppp[9].ppp transmissionState:vector ETV
attr interpolationmode sample-hold
attr source transmissionStateChanged
attr title "tx state, vector"
vector 181 scenario.client[9].ppp[10].ppp transmissionState:vector ETV
attr interpolationmode sample-hold
attr source transmissionStateChanged
attr title "tx state, vector"
vector 182 scenario.client[9].ppp[11].ppp transmissionState:vector ETV
attr interpolationmode sample-hold
attr source transmissionStateChanged
attr title "tx state, vector"
vector 183 scenario.client[9].ppp[12].ppp transmissionState:vector ETV
attr interpolationmode sample-hold
attr source transmissionStateChanged
attr title "tx state, vector"
vector 184 scenario.client[9].ppp[13].ppp transmissionState:vector ETV
attr interpolationmode sample-hold
attr source transmissionStateChanged
attr title "tx state, vector"
vector 185 scenario.client[9].ppp[14].ppp transmissionState:vector ETV
attr interpolationmode sample-hold
attr source transmissionStateChanged
attr title "tx state, vector"
vector 186 scenario.client[9].ppp[15].ppp transmissionState:vector ETV
attr interpolationmode sample-hold
attr source transmissionStateChanged
attr title "tx state, vector"
vector 187 scenario.client[9].ppp[16].ppp transmissionState:vector ETV
attr interpolationmode sample-hold
attr source transmissionStateChanged
attr title "tx state, vector"
vector 188 scenario.client[9].ppp[17].ppp transmissionState:vector ETV
attr interpolationmode sample-hold
attr source transmissionStateChanged
attr title "tx state, vector"
vector 189 scenario.client[9].ppp[18].ppp transmissionState:vector ETV
attr interpolationmode sample-hold
attr source transmissionStateChanged
attr title "tx state, vector"
vector 190 scenario.client[10].ppp[0].ppp transmissionState:vector ETV
attr interpolationmode sample-hold
attr source transmissionStateChanged
attr title "tx state, vector"
vector 191 scenario.client[10].ppp[1].ppp transmissionState:vector ETV
attr interpolationmode sample-hold
attr source transmissionStateChanged
attr title "tx state, vector"
vector 192 scenario.client[10].ppp[2].ppp transmissionState:vector ETV
attr interpolationmode sample-hold
attr source transmissionStateChanged
attr title "tx state, vector"
vector 193 scenario.client[10].ppp[3].ppp transmissionState:vector ETV
attr interpolationmode sample-hold
attr source transmissionStateChanged
attr title "tx state, vector"
vector 194 scenario.client[10].ppp[4].ppp transmissionState:vector ETV
attr interpolationmode sample-hold
attr source transmissionStateChanged
attr title "tx state, vector"
vector 195 scenario.client[10].ppp[5].ppp transmissionState:vector ETV
attr interpolationmode sample-hold
attr source transmissionStateChanged
attr title "tx state, vector"
vector 196 scenario.client[10].ppp[6].ppp transmissionState:vector ETV
attr interpolationmode sample-hold
attr source transmissionStateChanged
attr title "tx state, vector"
vector 197 scenario.client[10].ppp[7].ppp transmissionState:vector ETV
attr interpolationmode sample-hold
attr source transmissionStateChanged
attr title "tx state, vector"
vector 198 scenario.client[10].ppp[8].ppp transmissionState:vector ETV
attr interpolationmode sample-hold
attr source transmissionStateChanged
attr title "tx state, vector"
vector 199 scenario.client[10].ppp[9].ppp transmissionState:vector ETV
attr interpolationmode sample-hold
attr source transmissionStateChanged
attr title "tx state, vector"
vector 200 scenario.client[10].ppp[10].ppp transmissionState:vector ETV
attr interpolationmode sample-hold
attr source transmissionStateChanged
attr title "tx state, vector"
vector 201 scenario.client[10].ppp[11].ppp transmissionState:vector ETV
attr interpolationmode sample-hold
attr source transmissionStateChanged
attr title "tx state, vector"
vector 202 scenario.client[10].ppp[12].ppp transmissionState:vector ETV
attr interpolationmode sample-hold
attr source transmissionStateChanged
attr title "tx state, vector"
vector 203 scenario.client[10].ppp[13].ppp transmissionState:vector ETV
attr interpolationmode sample-hold
attr source transmissionStateChanged
attr title "tx state, vector"
vector 204 scenario.client[10].ppp[14].ppp transmissionState:vector ETV
attr interpolationmode sample-hold
attr source transmissionStateChanged
attr title "tx state, vector"
vector 205 scenario.client[10].ppp[15].ppp transmissionState:vector ETV
attr interpolationmode sample-hold
attr source transmissionStateChanged
attr title "tx state, vector"
vector 206 scenario.client[10].ppp[16].ppp transmissionState:vector ETV
attr interpolationmode sample-hold
attr source transmissionStateChanged
attr title "tx state, vector"
vector 207 scenario.client[10].ppp[17].ppp transmissionState:vector ETV
attr interpolationmode sample-hold
attr source transmissionStateChanged
attr title "tx state, vector"
vector 208 scenario.client[10].ppp[18].ppp transmissionState:vector ETV
attr interpolationmode sample-hold
attr source transmissionStateChanged
attr title "tx state, vector"
vector 209 scenario.client[11].ppp[0].ppp transmissionState:vector ETV
attr interpolationmode sample-hold
attr source transmissionStateChanged
attr title "tx state, vector"
vector 210 scenario.client[11].ppp[1].ppp transmissionState:vector ETV
attr interpolationmode sample-hold
attr source transmissionStateChanged
attr title "tx state, vector"
vector 211 scenario.client[11].ppp[2].ppp transmissionState:vector ETV
attr interpolationmode sample-hold
attr source transmissionStateChanged
attr title "tx state, vector"
vector 212 scenario.client[11].ppp[3].ppp transmissionState:vector ETV
attr interpolationmode sample-hold
attr source transmissionStateChanged
attr title "tx state, vector"
vector 213 scenario.client[11].ppp[4].ppp transmissionState:vector ETV
attr interpolationmode sample-hold
attr source transmissionStateChanged
attr title "tx state, vector"
vector 214 scenario.client[11].ppp[5].ppp transmissionState:vector ETV
attr interpolationmode sample-hold
attr source transmissionStateChanged
attr title "tx state, vector"
vector 215 scenario.client[11].ppp[6].ppp transmissionState:vector ETV
attr interpolationmode sample-hold
attr source transmissionStateChanged
attr title "tx state, vector"
vector 216 scenario.client[11].ppp[7].ppp transmissionState:vector ETV
attr interpolationmode sample-hold
attr source transmissionStateChanged
attr title "tx state, vector"
vector 217 scenario.client[11].ppp[8].ppp transmissionState:vector ETV
attr interpolationmode sample-hold
attr source transmissionStateChanged
attr title "tx state, vector"
vector 218 scenario.client[11].ppp[9].ppp transmissionState:vector ETV
attr interpolationmode sample-hold
attr source transmissionStateChanged
attr title "tx state, vector"
vector 219 scenario.client[11].ppp[10].ppp transmissionState:vector ETV
attr interpolationmode sample-hold
attr source transmissionStateChanged
attr title "tx state, vector"
vector 220 scenario.client[11].ppp[11].ppp transmissionState:vector ETV
attr interpolationmode sample-hold
attr source transmissionStateChanged
attr title "tx state, vector"
vector 221 scenario.client[11].ppp[12].ppp transmissionState:vector ETV
attr interpolationmode sample-hold
attr source transmissionStateChanged
attr title "tx state, vector"
vector 222 scenario.client[11].ppp[13].ppp transmissionState:vector ETV
attr interpolationmode sample-hold
attr source transmissionStateChanged
attr title "tx state, vector"
vector 223 scenario.client[11].ppp[14].ppp transmissionState:vector ETV
attr interpolationmode sample-hold
attr source transmissionStateChanged
attr title "tx state, vector"
vector 224 scenario.client[11].ppp[15].ppp transmissionState:vector ETV
attr interpolationmode sample-hold
attr source transmissionStateChanged
attr title "tx state, vector"
vector 225 scenario.client[11].ppp[16].ppp transmissionState:vector ETV
attr interpolationmode sample-hold
attr source transmissionStateChanged
attr title "tx state, vector"
vector 226 scenario.client[11].ppp[17].ppp transmissionState:vector ETV
attr interpolationmode sample-hold
attr source transmissionStateChanged
attr title "tx state, vector"
vector 227 scenario.client[11].ppp[18].ppp transmissionState:vector ETV
attr interpolationmode sample-hold
attr source transmissionStateChanged
attr title "tx state, vector"
vector 228 scenario.client[12].ppp[0].ppp transmissionState:vector ETV
attr interpolationmode sample-hold
attr source transmissionStateChanged
attr title "tx state, vector"
vector 229 scenario.client[12].ppp[1].ppp transmissionState:vector ETV
attr interpolationmode sample-hold
attr source transmissionStateChanged
attr title "tx state, vector"
vector 230 scenario.client[12].ppp[2].ppp transmissionState:vector ETV
attr interpolationmode sample-hold
attr source transmissionStateChanged
attr title "tx state, vector"
vector 231 scenario.client[12].ppp[3].ppp transmissionState:vector ETV
attr interpolationmode sample-hold
attr source transmissionStateChanged
attr title "tx state, vector"
vector 232 scenario.client[12].ppp[4].ppp transmissionState:vector ETV
attr interpolationmode sample-hold
attr source transmissionStateChanged
attr title "tx state, vector"
vector 233 scenario.client[12].ppp[5].ppp transmissionState:vector ETV
attr interpolationmode sample-hold
attr source transmissionStateChanged
attr title "tx state, vector"
vector 234 scenario.client[12].ppp[6].ppp transmissionState:vector ETV
attr interpolationmode sample-hold
attr source transmissionStateChanged
attr title "tx state, vector"
vector 235 scenario.client[12].ppp[7].ppp transmissionState:vector ETV
attr interpolationmode sample-hold
attr source transmissionStateChanged
attr title "tx state, vector"
vector 236 scenario.client[12].ppp[8].ppp transmissionState:vector ETV
attr interpolationmode sample-hold
attr source transmissionStateChanged
attr title "tx state, vector"
vector 237 scenario.client[12].ppp[9].ppp transmissionState:vector ETV
attr interpolationmode sample-hold
attr source transmissionStateChanged
attr title "tx state, vector"
vector 238 scenario.client[12].ppp[10].ppp transmissionState:vector ETV
attr interpolationmode sample-hold
attr source transmissionStateChanged
attr title "tx state, vector"
vector 239 scenario.client[12].ppp[11].ppp transmissionState:vector ETV
attr interpolationmode sample-hold
attr source transmissionStateChanged
attr title "tx state, vector"
vector 240 scenario.client[12].ppp[12].ppp transmissionState:vector ETV
attr interpolationmode sample-hold
attr source transmissionStateChanged
attr title "tx state, vector"
vector 241 scenario.client[12].ppp[13].ppp transmissionState:vector ETV
attr interpolationmode sample-hold
attr source transmissionStateChanged
attr title "tx state, vector"
vector 242 scenario.client[12].ppp[14].ppp transmissionState:vector ETV
attr interpolationmode sample-hold
attr source transmissionStateChanged
attr title "tx state, vector"
vector 243 scenario.client[12].ppp[15].ppp transmissionState:vector ETV
attr interpolationmode sample-hold
attr source transmissionStateChanged
attr title "tx state, vector"
vector 244 scenario.client[12].ppp[16].ppp transmissionState:vector ETV
attr interpolationmode sample-hold
attr source transmissionStateChanged
attr title "tx state, vector"
vector 245 scenario.client[12].ppp[17].ppp transmissionState:vector ETV
attr interpolationmode sample-hold
attr source transmissionStateChanged
attr title "tx state, vector"
vector 246 scenario.client[12].ppp[18].ppp transmissionState:vector ETV
attr interpolationmode sample-hold
attr source transmissionStateChanged
attr title "tx state, vector"
vector 247 scenario.client[13].ppp[0].ppp transmissionState:vector ETV
attr interpolationmode sample-hold
attr source transmissionStateChanged
attr title "tx state, vector"
vector 248 scenario.client[13].ppp[1].ppp transmissionState:vector ETV
attr interpolationmode sample-hold
attr source transmissionStateChanged
attr title "tx state, vector"
vector 249 scenario.client[13].ppp[2].ppp transmissionState:vector ETV
attr interpolationmode sample-hold
attr source transmissionStateChanged
attr title "tx state, vector"
vector 250 scenario.client[13].ppp[3].ppp transmissionState:vector ETV
attr interpolationmode sample-hold
attr source transmissionStateChanged
attr title "tx state, vector"
vector 251 scenario.client[13].ppp[4].ppp transmissionState:vector ETV
attr interpolationmode sample-hold
attr source transmissionStateChanged
attr title "tx state, vector"
vector 252 scenario.client[13].ppp[5].ppp transmissionState:vector ETV
attr interpolationmode sample-hold
attr source transmissionStateChanged
attr title "tx state, vector"
vector 253 scenario.client[13].ppp[6].ppp transmissionState:vector ETV
attr interpolationmode sample-hold
attr source transmissionStateChanged
attr title "tx state, vector"
vector 254 scenario.client[13].ppp[7].ppp transmissionState:vector ETV
attr interpolationmode sample-hold
attr source transmissionStateChanged
attr title "tx state, vector"
vector 255 scenario.client[13].ppp[8].ppp transmissionState:vector ETV
attr interpolationmode sample-hold
attr source transmissionStateChanged
attr title "tx state, vector"
vector 256 scenario.client[13].ppp[9].ppp transmissionState:vector ETV
attr interpolationmode sample-hold
attr source transmissionStateChanged
attr title "tx state, vector"
vector 257 scenario.client[13].ppp[10].ppp transmissionState:vector ETV
attr interpolationmode sample-hold
attr source transmissionStateChanged
attr title "tx state, vector"
vector 258 scenario.client[13].ppp[11].ppp transmissionState:vector ETV
attr interpolationmode sample-hold
attr source transmissionStateChanged
attr title "tx state, vector"
vector 259 scenario.client[13].ppp[12].ppp transmissionState:vector ETV
attr interpolationmode sample-hold
attr source transmissionStateChanged
attr title "tx state, vector"
vector 260 scenario.client[13].ppp[13].ppp transmissionState:vector ETV
attr interpolationmode sample-hold
attr source transmissionStateChanged
attr title "tx state, vector"
vector 261 scenario.client[13].ppp[14].ppp transmissionState:vector ETV
attr interpolationmode sample-hold
attr source transmissionStateChanged
attr title "tx state, vector"
vector 262 scenario.client[13].ppp[15].ppp transmissionState:vector ETV
attr interpolationmode sample-hold
attr source transmissionStateChanged
attr title "tx state, vector"
vector 263 scenario.client[13].ppp[16].ppp transmissionState:vector ETV
attr interpolationmode sample-hold
attr source transmissionStateChanged
attr title "tx state, vector"
vector 264 scenario.client[13].ppp[17].ppp transmissionState:vector ETV
attr interpolationmode sample-hold
attr source transmissionStateChanged
attr title "tx state, vector"
vector 265 scenario.client[13].ppp[18].ppp transmissionState:vector ETV
attr interpolationmode sample-hold
attr source transmissionStateChanged
attr title "tx state, vector"
vector 266 scenario.client[14].ppp[0].ppp transmissionState:vector ETV
attr interpolationmode sample-hold
attr source transmissionStateChanged
attr title "tx state, vector"
vector 267 scenario.client[14].ppp[1].ppp transmissionState:vector ETV
attr interpolationmode sample-hold
attr source transmissionStateChanged
attr title "tx state, vector"
vector 268 scenario.client[14].ppp[2].ppp transmissionState:vector ETV
attr interpolationmode sample-hold
attr source transmissionStateChanged
attr title "tx state, vector"
vector 269 scenario.client[14].ppp[3].ppp transmissionState:vector ETV
attr interpolationmode sample-hold
attr source transmissionStateChanged
attr title "tx state, vector"
vector 270 scenario.client[14].ppp[4].ppp transmissionState:vector ETV
attr interpolationmode sample-hold
attr source transmissionStateChanged
attr title "tx state, vector"
vector 271 scenario.client[14].ppp[5].ppp transmissionState:vector ETV
attr interpolationmode sample-hold
attr source transmissionStateChanged
attr title "tx state, vector"
vector 272 scenario.client[14].ppp[6].ppp transmissionState:vector ETV
attr interpolationmode sample-hold
attr source transmissionStateChanged
attr title "tx state, vector"
vector 273 scenario.client[14].ppp[7].ppp transmissionState:vector ETV
attr interpolationmode sample-hold
attr source transmissionStateChanged
attr title "tx state, vector"
vector 274 scenario.client[14].ppp[8].ppp transmissionState:vector ETV
attr interpolationmode sample-hold
attr source transmissionStateChanged
attr title "tx state, vector"
vector 275 scenario.client[14].ppp[9].ppp transmissionState:vector ETV
attr interpolationmode sample-hold
attr source transmissionStateChanged
attr title "tx state, vector"
vector 276 scenario.client[14].ppp[10].ppp transmissionState:vector ETV
attr interpolationmode sample-hold
attr source transmissionStateChanged
attr title "tx state, vector"
vector 277 scenario.client[14].ppp[11].ppp transmissionState:vector ETV
attr interpolationmode sample-hold
attr source transmissionStateChanged
attr title "tx state, vector"
vector 278 scenario.client[14].ppp[12].ppp transmissionState:vector ETV
attr interpolationmode sample-hold
attr source transmissionStateChanged
attr title "tx state, vector"
vector 279 scenario.client[14].ppp[13].ppp transmissionState:vector ETV
attr interpolationmode sample-hold
attr source transmissionStateChanged
attr title "tx state, vector"
vector 280 scenario.client[14].ppp[14].ppp transmissionState:vector ETV
attr interpolationmode sample-hold
attr source transmissionStateChanged
attr title "tx state, vector"
vector 281 scenario.client[14].ppp[15].ppp transmissionState:vector ETV
attr interpolationmode sample-hold
attr source transmissionStateChanged
attr title "tx state, vector"
vector 282 scenario.client[14].ppp[16].ppp transmissionState:vector ETV
attr interpolationmode sample-hold
attr source transmissionStateChanged
attr title "tx state, vector"
vector 283 scenario.client[14].ppp[17].ppp transmissionState:vector ETV
attr interpolationmode sample-hold
attr source transmissionStateChanged
attr title "tx state, vector"
vector 284 scenario.client[14].ppp[18].ppp transmissionState:vector ETV
attr interpolationmode sample-hold
attr source transmissionStateChanged
attr title "tx state, vector"
vector 285 scenario.client[15].ppp[0].ppp transmissionState:vector ETV
attr interpolationmode sample-hold
attr source transmissionStateChanged
attr title "tx state, vector"
vector 286 scenario.client[15].ppp[1].ppp transmissionState:vector ETV
attr interpolationmode sample-hold
attr source transmissionStateChanged
attr title "tx state, vector"
vector 287 scenario.client[15].ppp[2].ppp transmissionState:vector ETV
attr interpolationmode sample-hold
attr source transmissionStateChanged
attr title "tx state, vector"
vector 288 scenario.client[15].ppp[3].ppp transmissionState:vector ETV
attr interpolationmode sample-hold
attr source transmissionStateChanged
attr title "tx state, vector"
vector 289 scenario.client[15].ppp[4].ppp transmissionState:vector ETV
attr interpolationmode sample-hold
attr source transmissionStateChanged
attr title "tx state, vector"
vector 290 scenario.client[15].ppp[5].ppp transmissionState:vector ETV
attr interpolationmode sample-hold
attr source transmissionStateChanged
attr title "tx state, vector"
vector 291 scenario.client[15].ppp[6].ppp transmissionState:vector ETV
attr interpolationmode sample-hold
attr source transmissionStateChanged
attr title "tx state, vector"
vector 292 scenario.client[15].ppp[7].ppp transmissionState:vector ETV
attr interpolationmode sample-hold
attr source transmissionStateChanged
attr title "tx state, vector"
vector 293 scenario.client[15].ppp[8].ppp transmissionState:vector ETV
attr interpolationmode sample-hold
attr source transmissionStateChanged
attr title "tx state, vector"
vector 294 scenario.client[15].ppp[9].ppp transmissionState:vector ETV
attr interpolationmode sample-hold
attr source transmissionStateChanged
attr title "tx state, vector"
vector 295 scenario.client[15].ppp[10].ppp transmissionState:vector ETV
attr interpolationmode sample-hold
attr source transmissionStateChanged
attr title "tx state, vector"
vector 296 scenario.client[15].ppp[11].ppp transmissionState:vector ETV
attr interpolationmode sample-hold
attr source transmissionStateChanged
attr title "tx state, vector"
vector 297 scenario.client[15].ppp[12].ppp transmissionState:vector ETV
attr interpolationmode sample-hold
attr source transmissionStateChanged
attr title "tx state, vector"
vector 298 scenario.client[15].ppp[13].ppp transmissionState:vector ETV
attr interpolationmode sample-hold
attr source transmissionStateChanged
attr title "tx state, vector"
vector 299 scenario.client[15].ppp[14].ppp transmissionState:vector ETV
attr interpolationmode sample-hold
attr source transmissionStateChanged
attr title "tx state, vector"
vector 300 scenario.client[15].ppp[15].ppp transmissionState:vector ETV
attr interpolationmode sample-hold
attr source transmissionStateChanged
attr title "tx state, vector"
vector 301 scenario.client[15].ppp[16].ppp transmissionState:vector ETV
attr interpolationmode sample-hold
attr source transmissionStateChanged
attr title "tx state, vector"
vector 302 scenario.client[15].ppp[17].ppp transmissionState:vector ETV
attr interpolationmode sample-hold
attr source transmissionStateChanged
attr title "tx state, vector"
vector 303 scenario.client[15].ppp[18].ppp transmissionState:vector ETV
attr interpolationmode sample-hold
attr source transmissionStateChanged
attr title "tx state, vector"
vector 304 scenario.client[16].ppp[0].ppp transmissionState:vector ETV
attr interpolationmode sample-hold
attr source transmissionStateChanged
attr title "tx state, vector"
vector 305 scenario.client[16].ppp[1].ppp transmissionState:vector ETV
attr interpolationmode sample-hold
attr source transmissionStateChanged
attr title "tx state, vector"
vector 306 scenario.client[16].ppp[2].ppp transmissionState:vector ETV
attr interpolationmode sample-hold
attr source transmissionStateChanged
attr title "tx state, vector"
vector 307 scenario.client[16].ppp[3].ppp transmissionState:vector ETV
attr interpolationmode sample-hold
attr source transmissionStateChanged
attr title "tx state, vector"
vector 308 scenario.client[16].ppp[4].ppp transmissionState:vector ETV
attr interpolationmode sample-hold
attr source transmissionStateChanged
attr title "tx state, vector"
vector 309 scenario.client[16].ppp[5].ppp transmissionState:vector ETV
attr interpolationmode sample-hold
attr source transmissionStateChanged
attr title "tx state, vector"
vector 310 scenario.client[16].ppp[6].ppp transmissionState:vector ETV
attr interpolationmode sample-hold
attr source transmissionStateChanged
attr title "tx state, vector"
vector 311 scenario.client[16].ppp[7].ppp transmissionState:vector ETV
attr interpolationmode sample-hold
attr source transmissionStateChanged
attr title "tx state, vector"
vector 312 scenario.client[16].ppp[8].ppp transmissionState:vector ETV
attr interpolationmode sample-hold
attr source transmissionStateChanged
attr title "tx state, vector"
vector 313 scenario.client[16].ppp[9].ppp transmissionState:vector ETV
attr interpolationmode sample-hold
attr source transmissionStateChanged
attr title "tx state, vector"
vector 314 scenario.client[16].ppp[10].ppp transmissionState:vector ETV
attr interpolationmode sample-hold
attr source transmissionStateChanged
attr title "tx state, vector"
vector 315 scenario.client[16].ppp[11].ppp transmissionState:vector ETV
attr interpolationmode sample-hold
attr source transmissionStateChanged
attr title "tx state, vector"
vector 316 scenario.client[16].ppp[12].ppp transmissionState:vector ETV
attr interpolationmode sample-hold
attr source transmissionStateChanged
attr title "tx state, vector"
vector 317 scenario.client[16].ppp[13].ppp transmissionState:vector ETV
attr interpolationmode sample-hold
attr source transmissionStateChanged
attr title "tx state, vector"
vector 318 scenario.client[16].ppp[14].ppp transmissionState:vector ETV
attr interpolationmode sample-hold
attr source transmissionStateChanged
attr title "tx state, vector"
vector 319 scenario.client[16].ppp[15].ppp transmissionState:vector ETV
attr interpolationmode sample-hold
attr source transmissionStateChanged
attr title "tx state, vector"
vector 320 scenario.client[16].ppp[16].ppp transmissionState:vector ETV
attr interpolationmode sample-hold
attr source transmissionStateChanged
attr title "tx state, vector"
vector 321 scenario.client[16].ppp[17].ppp transmissionState:vector ETV
attr interpolationmode sample-hold
attr source transmissionStateChanged
attr title "tx state, vector"
vector 322 scenario.client[16].ppp[18].ppp transmissionState:vector ETV
attr interpolationmode sample-hold
attr source transmissionStateChanged
attr title "tx state, vector"
vector 323 scenario.client[17].ppp[0].ppp transmissionState:vector ETV
attr interpolationmode sample-hold
attr source transmissionStateChanged
attr title "tx state, vector"
vector 324 scenario.client[17].ppp[1].ppp transmissionState:vector ETV
attr interpolationmode sample-hold
attr source transmissionStateChanged
attr title "tx state, vector"
vector 325 scenario.client[17].ppp[2].ppp transmissionState:vector ETV
attr interpolationmode sample-hold
attr source transmissionStateChanged
attr title "tx state, vector"
vector 326 scenario.client[17].ppp[3].ppp transmissionState:vector ETV
attr interpolationmode sample-hold
attr source transmissionStateChanged
attr title "tx state, vector"
vector 327 scenario.client[17].ppp[4].ppp transmissionState:vector ETV
attr interpolationmode sample-hold
attr source transmissionStateChanged
attr title "tx state, vector"
vector 328 scenario.client[17].ppp[5].ppp transmissionState:vector ETV
attr interpolationmode sample-hold
attr source transmissionStateChanged
attr title "tx state, vector"
vector 329 scenario.client[17].ppp[6].ppp transmissionState:vector ETV
attr interpolationmode sample-hold
attr source transmissionStateChanged
attr title "tx state, vector"
vector 330 scenario.client[17].ppp[7].ppp transmissionState:vector ETV
attr interpolationmode sample-hold
attr source transmissionStateChanged
attr title "tx state, vector"
vector 331 scenario.client[17].ppp[8].ppp transmissionState:vector ETV
attr interpolationmode sample-hold
attr source transmissionStateChanged
attr title "tx state, vector"
vector 332 scenario.client[17].ppp[9].ppp transmissionState:vector ETV
attr interpolationmode sample-hold
attr source transmissionStateChanged
attr title "tx state, vector"
vector 333 scenario.client[17].ppp[10].ppp transmissionState:vector ETV
attr interpolationmode sample-hold
attr source transmissionStateChanged
attr title "tx state, vector"
vector 334 scenario.client[17].ppp[11].ppp transmissionState:vector ETV
attr interpolationmode sample-hold
attr source transmissionStateChanged
attr title "tx state, vector"
vector 335 scenario.client[17].ppp[12].ppp transmissionState:vector ETV
attr interpolationmode sample-hold
attr source transmissionStateChanged
attr title "tx state, vector"
vector 336 scenario.client[17].ppp[13].ppp transmissionState:vector ETV
attr interpolationmode sample-hold
attr source transmissionStateChanged
attr title "tx state, vector"
vector 337 scenario.client[17].ppp[14].ppp transmissionState:vector ETV
attr interpolationmode sample-hold
attr source transmissionStateChanged
attr title "tx state, vector"
vector 338 scenario.client[17].ppp[15].ppp transmissionState:vector ETV
attr interpolationmode sample-hold
attr source transmissionStateChanged
attr title "tx state, vector"
vector 339 scenario.client[17].ppp[16].ppp transmissionState:vector ETV
attr interpolationmode sample-hold
attr source transmissionStateChanged
attr title "tx state, vector"
vector 340 scenario.client[17].ppp[17].ppp transmissionState:vector ETV
attr interpolationmode sample-hold
attr source transmissionStateChanged
attr title "tx state, vector"
vector 341 scenario.client[17].ppp[18].ppp transmissionState:vector ETV
attr interpolationmode sample-hold
attr source transmissionStateChanged
attr title "tx state, vector"
vector 342 scenario.client[18].ppp[0].ppp transmissionState:vector ETV
attr interpolationmode sample-hold
attr source transmissionStateChanged
attr title "tx state, vector"
vector 343 scenario.client[18].ppp[1].ppp transmissionState:vector ETV
attr interpolationmode sample-hold
attr source transmissionStateChanged
attr title "tx state, vector"
vector 344 scenario.client[18].ppp[2].ppp transmissionState:vector ETV
attr interpolationmode sample-hold
attr source transmissionStateChanged
attr title "tx state, vector"
vector 345 scenario.client[18].ppp[3].ppp transmissionState:vector ETV
attr interpolationmode sample-hold
attr source transmissionStateChanged
attr title "tx state, vector"
vector 346 scenario.client[18].ppp[4].ppp transmissionState:vector ETV
attr interpolationmode sample-hold
attr source transmissionStateChanged
attr title "tx state, vector"
vector 347 scenario.client[18].ppp[5].ppp transmissionState:vector ETV
attr interpolationmode sample-hold
attr source transmissionStateChanged
attr title "tx state, vector"
vector 348 scenario.client[18].ppp[6].ppp transmissionState:vector ETV
attr interpolationmode sample-hold
attr source transmissionStateChanged
attr title "tx state, vector"
vector 349 scenario.client[18].ppp[7].ppp transmissionState:vector ETV
attr interpolationmode sample-hold
attr source transmissionStateChanged
attr title "tx state, vector"
vector 350 scenario.client[18].ppp[8].ppp transmissionState:vector ETV
attr interpolationmode sample-hold
attr source transmissionStateChanged
attr title "tx state, vector"
vector 351 scenario.client[18].ppp[9].ppp transmissionState:vector ETV
attr interpolationmode sample-hold
attr source transmissionStateChanged
attr title "tx state, vector"
vector 352 scenario.client[18].ppp[10].ppp transmissionState:vector ETV
attr interpolationmode sample-hold
attr source transmissionStateChanged
attr title "tx state, vector"
vector 353 scenario.client[18].ppp[11].ppp transmissionState:vector ETV
attr interpolationmode sample-hold
attr source transmissionStateChanged
attr title "tx state, vector"
vector 354 scenario.client[18].ppp[12].ppp transmissionState:vector ETV
attr interpolationmode sample-hold
attr source transmissionStateChanged
attr title "tx state, vector"
vector 355 scenario.client[18].ppp[13].ppp transmissionState:vector ETV
attr interpolationmode sample-hold
attr source transmissionStateChanged
attr title "tx state, vector"
vector 356 scenario.client[18].ppp[14].ppp transmissionState:vector ETV
attr interpolationmode sample-hold
attr source transmissionStateChanged
attr title "tx state, vector"
vector 357 scenario.client[18].ppp[15].ppp transmissionState:vector ETV
attr interpolationmode sample-hold
attr source transmissionStateChanged
attr title "tx state, vector"
vector 358 scenario.client[18].ppp[16].ppp transmissionState:vector ETV
attr interpolationmode sample-hold
attr source transmissionStateChanged
attr title "tx state, vector"
vector 359 scenario.client[18].ppp[17].ppp transmissionState:vector ETV
attr interpolationmode sample-hold
attr source transmissionStateChanged
attr title "tx state, vector"
vector 360 scenario.client[18].ppp[18].ppp transmissionState:vector ETV
attr interpolationmode sample-hold
attr source transmissionStateChanged
attr title "tx state, vector"
vector 361 scenario.client[19].ppp[0].ppp transmissionState:vector ETV
attr interpolationmode sample-hold
attr source transmissionStateChanged
attr title "tx state, vector"
vector 362 scenario.client[19].ppp[1].ppp transmissionState:vector ETV
attr interpolationmode sample-hold
attr source transmissionStateChanged
attr title "tx state, vector"
vector 363 scenario.client[19].ppp[2].ppp transmissionState:vector ETV
attr interpolationmode sample-hold
attr source transmissionStateChanged
attr title "tx state, vector"
vector 364 scenario.client[19].ppp[3].ppp transmissionState:vector ETV
attr interpolationmode sample-hold
attr source transmissionStateChanged
attr title "tx state, vector"
vector 365 scenario.client[19].ppp[4].ppp transmissionState:vector ETV
attr interpolationmode sample-hold
attr source transmissionStateChanged
attr title "tx state, vector"
vector 366 scenario.client[19].ppp[5].ppp transmissionState:vector ETV
attr interpolationmode sample-hold
attr source transmissionStateChanged
attr title "tx state, vector"
vector 367 scenario.client[19].ppp[6].ppp transmissionState:vector ETV
attr interpolationmode sample-hold
attr source transmissionStateChanged
attr title "tx state, vector"
vector 368 scenario.client[19].ppp[7].ppp transmissionState:vector ETV
attr interpolationmode sample-hold
attr source transmissionStateChanged
attr title "tx state, vector"
vector 369 scenario.client[19].ppp[8].ppp transmissionState:vector ETV
attr interpolationmode sample-hold
attr source transmissionStateChanged
attr title "tx state, vector"
vector 370 scenario.client[19].ppp[9].ppp transmissionState:vector ETV
attr interpolationmode sample-hold
attr source transmissionStateChanged
attr title "tx state, vector"
vector 371 scenario.client[19].ppp[10].ppp transmissionState:vector ETV
attr interpolationmode sample-hold
attr source transmissionStateChanged
attr title "tx state, vector"
vector 372 scenario.client[19].ppp[11].ppp transmissionState:vector ETV
attr interpolationmode sample-hold
attr source transmissionStateChanged
attr title "tx state, vector"
vector 373 scenario.client[19].ppp[12].ppp transmissionState:vector ETV
attr interpolationmode sample-hold
attr source transmissionStateChanged
attr title "tx state, vector"
vector 374 scenario.client[19].ppp[13].ppp transmissionState:vector ETV
attr interpolationmode sample-hold
attr source transmissionStateChanged
attr title "tx state, vector"
vector 375 scenario.client[19].ppp[14].ppp transmissionState:vector ETV
attr interpolationmode sample-hold
attr source transmissionStateChanged
attr title "tx state, vector"
vector 376 scenario.client[19].ppp[15].ppp transmissionState:vector ETV
attr interpolationmode sample-hold
attr source transmissionStateChanged
attr title "tx state, vector"
vector 377 scenario.client[19].ppp[16].ppp transmissionState:vector ETV
attr interpolationmode sample-hold
attr source transmissionStateChanged
attr title "tx state, vector"
vector 378 scenario.client[19].ppp[17].ppp transmissionState:vector ETV
attr interpolationmode sample-hold
attr source transmissionStateChanged
attr title "tx state, vector"
vector 379 scenario.client[19].ppp[18].ppp transmissionState:vector ETV
attr interpolationmode sample-hold
attr source transmissionStateChanged
attr title "tx state, vector"
vector 380 scenario.client[0].tcp.conn-400 tcpRcvQueueBytes:vector ETV
attr interpolationmode sample-hold
vector 381 scenario.client[0].tcp.conn-400 rcvAdv:vector ETV
attr interpolationmode sample-hold
vector 382 scenario.client[0].tcp.conn-400 rcvWnd:vector ETV
attr interpolationmode sample-hold
vector 383 scenario.client[0].tcp.conn-400 sndAck:vector ETV
attr interpolationmode sample-hold
vector 384 scenario.client[0].tcp.conn-401 tcpRcvQueueBytes:vector ETV
attr interpolationmode sample-hold
vector 385 scenario.client[0].tcp.conn-401 rcvAdv:vector ETV
attr interpolationmode sample-hold
vector 386 scenario.client[0].tcp.conn-401 rcvWnd:vector ETV
attr interpolationmode sample-hold
vector 387 scenario.client[0].tcp.conn-401 sndAck:vector ETV
attr interpolationmode sample-hold
vector 388 scenario.client[0].tcp.conn-402 tcpRcvQueueBytes:vector ETV
attr interpolationmode sample-hold
vector 389 scenario.client[0].tcp.conn-402 rcvAdv:vector ETV
attr interpolationmode sample-hold
vector 390 scenario.client[0].tcp.conn-402 rcvWnd:vector ETV
attr interpolationmode sample-hold
vector 391 scenario.client[0].tcp.conn-402 sndAck:vector ETV
attr interpolationmode sample-hold
vector 392 scenario.client[0].tcp.conn-403 tcpRcvQueueBytes:vector ETV
attr interpolationmode sample-hold
vector 393 scenario.client[0].tcp.conn-403 rcvAdv:vector ETV
attr interpolationmode sample-hold
vector 394 scenario.client[0].tcp.conn-403 rcvWnd:vector ETV
attr interpolationmode sample-hold
vector 395 scenario.client[0].tcp.conn-403 sndAck:vector ETV
attr interpolationmode sample-hold
vector 396 scenario.client[0].tcp.conn-404 tcpRcvQueueBytes:vector ETV
attr interpolationmode sample-hold
vector 397 scenario.client[0].tcp.conn-404 rcvAdv:vector ETV
attr interpolationmode sample-hold
vector 398 scenario.client[0].tcp.conn-404 rcvWnd:vector ETV
attr interpolationmode sample-hold
vector 399 scenario.client[0].tcp.conn-404 sndAck:vector ETV
attr interpolationmode sample-hold
vector 400 scenario.client[0].tcp.conn-405 tcpRcvQueueBytes:vector ETV
attr interpolationmode sample-hold
vector 401 scenario.client[0].tcp.conn-405 rcvAdv:vector ETV
attr interpolationmode sample-hold
vector 402 scenario.client[0].tcp.conn-405 rcvWnd:vector ETV
attr interpolationmode sample-hold
vector 403 scenario.client[0].tcp.conn-405 sndAck:vector ETV
attr interpolationmode sample-hold
vector 404 scenario.client[0].tcp.conn-406 tcpRcvQueueBytes:vector ETV
attr interpolationmode sample-hold
vector 405 scenario.client[0].tcp.conn-406 rcvAdv:vector ETV
attr interpolationmode sample-hold
vector 406 scenario.client[0].tcp.conn-406 rcvWnd:vector ETV
attr interpolationmode sample-hold
vector 407 scenario.client[0].tcp.conn-406 sndAck:vector ETV
attr interpolationmode sample-hold
vector 408 scenario.client[0].tcp.conn-407 tcpRcvQueueBytes:vector ETV
attr interpolationmode sample-hold
vector 409 scenario.client[0].tcp.conn-407 rcvAdv:vector ETV
attr interpolationmode sample-hold
vector 410 scenario.client[0].tcp.conn-407 rcvWnd:vector ETV
attr interpolationmode sample-hold
vector 411 scenario.client[0].tcp.conn-407 sndAck:vector ETV
attr interpolationmode sample-hold
vector 412 scenario.client[0].tcp.conn-408 tcpRcvQueueBytes:vector ETV
attr interpolationmode sample-hold
vector 413 scenario.client[0].tcp.conn-408 rcvAdv:vector ETV
attr interpolationmode sample-hold
vector 414 scenario.client[0].tcp.conn-408 rcvWnd:vector ETV
attr interpolationmode sample-hold
vector 415 scenario.client[0].tcp.conn-408 sndAck:vector ETV
attr interpolationmode sample-hold
vector 416 scenario.client[0].tcp.conn-409 tcpRcvQueueBytes:vector ETV
attr interpolationmode sample-hold
vector 417 scenario.client[0].tcp.conn-409 rcvAdv:vector ETV
attr interpolationmode sample-hold
vector 418 scenario.client[0].tcp.conn-409 rcvWnd:vector ETV
attr interpolationmode sample-hold
vector 419 scenario.client[0].tcp.conn-409 sndAck:vector ETV
attr interpolationmode sample-hold
vector 420 scenario.client[0].tcp.conn-410 tcpRcvQueueBytes:vector ETV
attr interpolationmode sample-hold
vector 421 scenario.client[0].tcp.conn-410 rcvAdv:vector ETV
attr interpolationmode sample-hold
vector 422 scenario.client[0].tcp.conn-410 rcvWnd:vector ETV
attr interpolationmode sample-hold
vector 423 scenario.client[0].tcp.conn-410 sndAck:vector ETV
attr interpolationmode sample-hold
vector 424 scenario.client[0].tcp.conn-411 tcpRcvQueueBytes:vector ETV
attr interpolationmode sample-hold
vector 425 scenario.client[0].tcp.conn-411 rcvAdv:vector ETV
attr interpolationmode sample-hold
vector 426 scenario.client[0].tcp.conn-411 rcvWnd:vector ETV
attr interpolationmode sample-hold
vector 427 scenario.client[0].tcp.conn-411 sndAck:vector ETV
attr interpolationmode sample-hold
vector 428 scenario.client[0].tcp.conn-412 tcpRcvQueueBytes:vector ETV
attr interpolationmode sample-hold
vector 429 scenario.client[0].tcp.conn-412 rcvAdv:vector ETV
attr interpolationmode sample-hold
vector 430 scenario.client[0].tcp.conn-412 rcvWnd:vector ETV
attr interpolationmode sample-hold
vector 431 scenario.client[0].tcp.conn-412 sndAck:vector ETV
attr interpolationmode sample-hold
vector 432 scenario.client[0].tcp.conn-413 tcpRcvQueueBytes:vector ETV
attr interpolationmode sample-hold
vector 433 scenario.client[0].tcp.conn-413 rcvAdv:vector ETV
attr interpolationmode sample-hold
vector 434 scenario.client[0].tcp.conn-413 rcvWnd:vector ETV
attr interpolationmode sample-hold
vector 435 scenario.client[0].tcp.conn-413 sndAck:vector ETV
attr interpolationmode sample-hold
vector 436 scenario.client[0].ppp[0].ppp rcvdPkFromHl:vector(packetBytes) ETV
attr interpolationmode none
attr source packetReceivedFromUpper
attr title "packets received from higher layer, vector(packetBytes)"
vector 437 scenario.client[0].ppp[0].ppp.queue packetPushed:vector(packetBytes) ETV
attr interpolationmode none
attr title "packet pushed, vector(packetBytes)"
vector 438 scenario.client[0].ppp[0].ppp.queue queueLength:vector ETV
attr interpolationmode sample-hold
attr source "count(packetPushed) - count(packetPopped) - count(packetRemoved) - count(packetDropped)"
attr title "queue length, vector"
vector 439 scenario.client[0].ppp[0].ppp.queue packetPopped:vector(packetBytes) ETV
attr interpolationmode none
attr title "packet popped, vector(packetBytes)"
vector 440 scenario.client[0].ppp[0].ppp.queue queueingTime:vector ETV
attr interpolationmode none
attr source queueingTime(packetPopped)
attr title "queueing times, vector"
attr unit s
vector 441 scenario.client[0].ppp[0].ppp txPk:vector(packetBytes) ETV
attr interpolationmode none
attr source packetSentToLower
attr title "packets transmitted, vector(packetBytes)"
vector 442 scenario.client[0].ppp[1].ppp rcvdPkFromHl:vector(packetBytes) ETV
attr interpolationmode none
attr source packetReceivedFromUpper
attr title "packets received from higher layer, vector(packetBytes)"
vector 443 scenario.client[0].ppp[1].ppp.queue packetPushed:vector(packetBytes) ETV
attr interpolationmode none
attr title "packet pushed, vector(packetBytes)"
vector 444 scenario.client[0].ppp[1].ppp.queue queueLength:vector ETV
attr interpolationmode sample-hold
attr source "count(packetPushed) - count(packetPopped) - count(packetRemoved) - count(packetDropped)"
attr title "queue length, vector"
vector 445 scenario.client[0].ppp[1].ppp.queue packetPopped:vector(packetBytes) ETV
attr interpolationmode none
attr title "packet popped, vector(packetBytes)"
vector 446 scenario.client[0].ppp[1].ppp.queue queueingTime:vector ETV
attr interpolationmode none
attr source queueingTime(packetPopped)
attr title "queueing times, vector"
attr unit s
vector 447 scenario.client[0].ppp[1].ppp txPk:vector(packetBytes) ETV
attr interpolationmode none
attr source packetSentToLower
attr title "packets transmitted, vector(packetBytes)"
vector 448 scenario.client[0].ppp[2].ppp rcvdPkFromHl:vector(packetBytes) ETV
attr interpolationmode none
attr source packetReceivedFromUpper
attr title "packets received from higher layer, vector(packetBytes)"
vector 449 scenario.client[0].ppp[2].ppp.queue packetPushed:vector(packetBytes) ETV
attr interpolationmode none
attr title "packet pushed, vector(packetBytes)"
vector 450 scenario.client[0].ppp[2].ppp.queue queueLength:vector ETV
attr interpolationmode sample-hold
attr source "count(packetPushed) - count(packetPopped) - count(packetRemoved) - count(packetDropped)"
attr title "queue length, vector"
vector 451 scenario.client[0].ppp[2].ppp.queue packetPopped:vector(packetBytes) ETV
attr interpolationmode none
attr title "packet popped, vector(packetBytes)"
vector 452 scenario.client[0].ppp[2].ppp.queue queueingTime:vector ETV
attr interpolationmode none
attr source queueingTime(packetPopped)
attr title "queueing times, vector"
attr unit s
vector 453 scenario.client[0].ppp[2].ppp txPk:vector(packetBytes) ETV
attr interpolationmode none
attr source packetSentToLower
attr title "packets transmitted, vector(packetBytes)"
vector 454 scenario.client[0].ppp[3].ppp rcvdPkFromHl:vector(packetBytes) ETV
attr interpolationmode none
attr source packetReceivedFromUpper
attr title "packets received from higher layer, vector(packetBytes)"
vector 455 scenario.client[0].ppp[3].ppp.queue packetPushed:vector(packetBytes) ETV
attr interpolationmode none
attr title "packet pushed, vector(packetBytes)"
vector 456 scenario.client[0].ppp[3].ppp.queue queueLength:vector ETV
attr interpolationmode sample-hold
attr source "count(packetPushed) - count(packetPopped) - count(packetRemoved) - count(packetDropped)"
attr title "queue length, vector"
vector 457 scenario.client[0].ppp[3].ppp.queue packetPopped:vector(packetBytes) ETV
attr interpolationmode none
attr title "packet popped, vector(packetBytes)"
vector 458 scenario.client[0].ppp[3].ppp.queue queueingTime:vector ETV
attr interpolationmode none
attr source queueingTime(packetPopped)
attr title "queueing times, vector"
attr unit s
vector 459 scenario.client[0].ppp[3].ppp txPk:vector(packetBytes) ETV
attr interpolationmode none
attr source packetSentToLower
attr title "packets transmitted, vector(packetBytes)"
vector 460 scenario.client[0].ppp[4].ppp rcvdPkFromHl:vector(packetBytes) ETV
attr interpolationmode none
attr source packetReceivedFromUpper
attr title "packets received from higher layer, vector(packetBytes)"
vector 461 scenario.client[0].ppp[4].ppp.queue packetPushed:vector(packetBytes) ETV
attr interpolationmode none
attr title "packet pushed, vector(packetBytes)"
vector 462 scenario.client[0].ppp[4].ppp.queue queueLength:vector ETV
attr interpolationmode sample-hold
attr source "count(packetPushed) - count(packetPopped) - count(packetRemoved) - count(packetDropped)"
attr title "queue length, vector"
vector 463 scenario.client[0].ppp[4].ppp.queue packetPopped:vector(packetBytes) ETV
attr interpolationmode none
attr title "packet popped, vector(packetBytes)"
vector 464 scenario.client[0].ppp[4].ppp.queue queueingTime:vector ETV
attr interpolationmode none
attr source queueingTime(packetPopped)
attr title "queueing times, vector"
attr unit s
vector 465 scenario.client[0].ppp[4].ppp txPk:vector(packetBytes) ETV
attr interpolationmode none
attr source packetSentToLower
attr title "packets transmitted, vector(packetBytes)"
vector 466 scenario.client[0].ppp[5].ppp rcvdPkFromHl:vector(packetBytes) ETV
attr interpolationmode none
attr source packetReceivedFromUpper
attr title "packets received from higher layer, vector(packetBytes)"
vector 467 scenario.client[0].ppp[5].ppp.queue packetPushed:vector(packetBytes) ETV
attr interpolationmode none
attr title "packet pushed, vector(packetBytes)"
vector 468 scenario.client[0].ppp[5].ppp.queue queueLength:vector ETV
attr interpolationmode sample-hold
attr source "count(packetPushed) - count(packetPopped) - count(packetRemoved) - count(packetDropped)"
attr title "queue length, vector"
vector 469 scenario.client[0].ppp[5].ppp.queue packetPopped:vector(packetBytes) ETV
attr interpolationmode none
attr title "packet popped, vector(packetBytes)"
vector 470 scenario.client[0].ppp[5].ppp.queue queueingTime:vector ETV
attr interpolationmode none
attr source queueingTime(packetPopped)
attr title "queueing times, vector"
attr unit s
vector 471 scenario.client[0].ppp[5].ppp txPk:vector(packetBytes) ETV
attr interpolationmode none
attr source packetSentToLower
attr title "packets transmitted, vector(packetBytes)"
vector 472 scenario.client[0].ppp[6].ppp rcvdPkFromHl:vector(packetBytes) ETV
attr interpolationmode none
attr source packetReceivedFromUpper
attr title "packets received from higher layer, vector(packetBytes)"
vector 473 scenario.client[0].ppp[6].ppp.queue packetPushed:vector(packetBytes) ETV
attr interpolationmode none
attr title "packet pushed, vector(packetBytes)"
vector 474 scenario.client[0].ppp[6].ppp.queue queueLength:vector ETV
attr interpolationmode sample-hold
attr source "count(packetPushed) - count(packetPopped) - count(packetRemoved) - count(packetDropped)"
attr title "queue length, vector"
[...]
11989	27809919 466 323718 348785 33.304892 36.00692 18 0 9 73 437
11990	27810385 318 323719 348786 33.304892 36.00692 10 8325996 8325997 83259969 6.932222437881e+014
11991	27810703 318 323719 348786 33.304892 36.00692 10 8325676 8325686 83256807 6.9316959118362e+014
11992	27811021 288 323719 348786 33.304892 36.00692 10 7503 7504 75039 563085153
11993	27811309 466 323719 348786 33.304892 36.00692 18 0 9 73 437
11994	27811775 318 323720 348787 33.304892 36.00692 10 8325996 8325997 83259969 6.932222437881e+014
11995	27812093 318 323720 348787 33.304892 36.00692 10 8325676 8325686 83256807 6.9316959118362e+014
11996	27812411 288 323720 348787 33.304892 36.00692 10 7503 7504 75039 563085153
11997	27812699 466 323720 348787 33.304892 36.00692 18 0 9 73 437
11998	27813165 318 323721 348788 33.304892 36.00692 10 8325996 8325997 83259969 6.932222437881e+014
11999	27813483 318 323721 348788 33.304892 36.00692 10 8325676 8325686 83256807 6.9316959118362e+014
12000	27813801 288 323721 348788 33.304892 36.00692 10 7503 7504 75039 563085153
12001	27814089 466 323721 348788 33.304892 36.00692 18 0 9 73 437
12002	27814555 318 323722 348789 33.304892 36.00692 10 8325996 8325997 83259969 6.932222437881e+014
12003	27814873 318 323722 348789 33.304892 36.00692 10 8325676 8325686 83256807 6.9316959118362e+014
12004	27815191 288 323722 348789 33.304892 36.00692 10 7503 7504 75039 563085153
12005	27815479 466 323722 348789 33.304892 36.00692 18 0 9 73 437
12006	27815945 318 323723 348790 33.304892 36.00692 10 8325996 8325997 83259969 6.932222437881e+014
12007	27816263 318 323723 348790 33.304892 36.00692 10 8325676 8325686 83256807 6.9316959118362e+014
12008	27816581 288 323723 348790 33.304892 36.00692 10 7503 7504 75039 563085153
12009	27816869 466 323723 348790 33.304892 36.00692 18 0 9 73 437
12010	27817335 318 323724 348791 33.304892 36.00692 10 8325996 8325997 83259969 6.932222437881e+014
12011	27817653 318 323724 348791 33.304892 36.00692 10 8325676 8325686 83256807 6.9316959118362e+014
12012	27817971 288 323724 348791 33.304892 36.00692 10 7503 7504 75039 563085153
12013	27818259 466 323724 348791 33.304892 36.00692 18 0 9 73 437
12014	27818725 318 323725 348792 33.304892 36.00692 10 8325996 8325997 83259969 6.932222437881e+014
12015	27819043 318 323725 348792 33.304892 36.00692 10 8325676 8325686 83256807 6.9316959118362e+014
12016	27819361 288 323725 348792 33.304892 36.00692 10 7503 7504 75039 563085153
12017	27819649 466 323725 348792 33.304892 36.00692 18 0 9 73 437
12018	27820115 318 323726 348793 33.304892 36.00692 10 8325996 8325997 83259969 6.932222437881e+014
12019	27820433 318 323726 348793 33.304892 36.00692 10 8325676 8325686 83256807 6.9316959118362e+014
12020	27820751 288 323726 348793 33.304892 36.00692 10 7503 7504 75039 563085153
12021	27821039 466 323726 348793 33.304892 36.00692 18 0 9 73 437
12022	27821505 318 323727 348794 33.304892 36.00692 10 8325996 8325997 83259969 6.932222437881e+014
12023	27821823 318 323727 348794 33.304892 36.00692 10 8325676 8325686 83256807 6.9316959118362e+014
12024	27822141 288 323727 348794 33.304892 36.00692 10 7503 7504 75039 563085153
12025	27822429 466 323727 348794 33.304892 36.00692 18 0 9 73 437
12026	27822895 318 323728 348795 33.304892 36.00692 10 8325996 8325997 83259969 6.932222437881e+014
12027	27823213 318 323728 348795 33.304892 36.00692 10 8325676 8325686 83256807 6.9316959118362e+014
12028	27823531 288 323728 348795 33.304892 36.00692 10 7503 7504 75039 563085153
12029	27823819 466 323728 348795 33.304892 36.00692 18 0 9 73 437
12030	27824285 318 323729 348796 33.304892 36.00692 10 8325996 8325997 83259969 6.932222437881e+014
12031	27824603 318 323729 348796 33.304892 36.00692 10 8325676 8325686 83256807 6.9316959118362e+014
12032	27824921 288 323729 348796 33.304892 36.00692 10 7503 7504 75039 563085153
12033	27825209 466 323729 348796 33.304892 36.00692 18 0 9 73 437
12034	27825675 286 323814 345227 33.305776 36.005724 9 8325676 8325685 74931121 6.2385254381303e+014
12035	27825961 286 323814 345227 33.305776 36.005724 9 8325997 8325997 74933973 6.2390003439608e+014
12036	27826247 26 323814 323814 33.305776 33.305776 1 0 0 0 0
12037	27826273 29 323814 323814 33.305776 33.305776 1 1072 1072 1072 1149184
12038	27826302 35 323814 323814 33.305776 33.305776 1 4294967295 4294967295 4294967295 1.844674406512e+019
12039	27826337 232 323814 345227 33.305776 36.005724 9 0 0 0 0
12040	27826569 286 323815 345228 33.305776 36.005724 9 8325676 8325685 74931121 6.2385254381303e+014
12041	27826855 286 323815 345228 33.305776 36.005724 9 8325997 8325997 74933973 6.2390003439608e+014
12042	27827141 26 323815 323815 33.305776 33.305776 1 0 0 0 0
12043	27827167 29 323815 323815 33.305776 33.305776 1 1072 1072 1072 1149184
12044	27827196 35 323815 323815 33.305776 33.305776 1 4294967295 4294967295 4294967295 1.844674406512e+019
12045	27827231 232 323815 345228 33.305776 36.005724 9 0 0 0 0
12046	27827463 286 323816 345229 33.305776 36.005724 9 8325676 8325685 74931121 6.2385254381303e+014
12047	27827749 286 323816 345229 33.305776 36.005724 9 8325997 8325997 74933973 6.2390003439608e+014
12048	27828035 26 323816 323816 33.305776 33.305776 1 0 0 0 0
12049	27828061 29 323816 323816 33.305776 33.305776 1 1072 1072 1072 1149184
12050	27828090 35 323816 323816 33.305776 33.305776 1 4294967295 4294967295 4294967295 1.844674406512e+019
12051	27828125 232 323816 345229 33.305776 36.005724 9 0 0 0 0
12052	27828357 286 323817 345230 33.305776 36.005724 9 8325676 8325685 74931121 6.2385254381303e+014
12053	27828643 286 323817 345230 33.305776 36.005724 9 8325997 8325997 74933973 6.2390003439608e+014
12054	27828929 26 323817 323817 33.305776 33.305776 1 0 0 0 0
12055	27828955 29 323817 323817 33.305776 33.305776 1 1072 1072 1072 1149184
12056	27828984 35 323817 323817 33.305776 33.305776 1 4294967295 4294967295 4294967295 1.844674406512e+019
12057	27829019 232 323817 345230 33.305776 36.005724 9 0 0 0 0
12058	27829251 286 323818 345231 33.305776 36.005724 9 8325676 8325685 74931121 6.2385254381303e+014
12059	27829537 286 323818 345231 33.305776 36.005724 9 8325997 8325997 74933973 6.2390003439608e+014
12060	27829823 26 323818 323818 33.305776 33.305776 1 0 0 0 0
12061	27829849 29 323818 323818 33.305776 33.305776 1 1072 1072 1072 1149184
12062	27829878 35 323818 323818 33.305776 33.305776 1 4294967295 4294967295 4294967295 1.844674406512e+019
12063	27829913 232 323818 345231 33.305776 36.005724 9 0 0 0 0
12064	27830145 286 323819 345232 33.305776 36.005724 9 8325676 8325685 74931121 6.2385254381303e+014
12065	27830431 286 323819 345232 33.305776 36.005724 9 8325997 8325997 74933973 6.2390003439608e+014
12066	27830717 26 323819 323819 33.305776 33.305776 1 0 0 0 0
12067	27830743 29 323819 323819 33.305776 33.305776 1 1072 1072 1072 1149184
12068	27830772 35 323819 323819 33.305776 33.305776 1 4294967295 4294967295 4294967295 1.844674406512e+019
12069	27830807 232 323819 345232 33.305776 36.005724 9 0 0 0 0
12070	27831039 286 323820 345233 33.305776 36.005724 9 8325676 8325685 74931121 6.2385254381303e+014
12071	27831325 286 323820 345233 33.305776 36.005724 9 8325997 8325997 74933973 6.2390003439608e+014
12072	27831611 26 323820 323820 33.305776 33.305776 1 0 0 0 0
12073	27831637 29 323820 323820 33.305776 33.305776 1 1072 1072 1072 1149184
12074	27831666 35 323820 323820 33.305776 33.305776 1 4294967295 4294967295 4294967295 1.844674406512e+019
12075	27831701 232 323820 345233 33.305776 36.005724 9 0 0 0 0
12076	27831933 286 323821 345234 33.305776 36.005724 9 8325676 8325685 74931121 6.2385254381303e+014
12077	27832219 286 323821 345234 33.305776 36.005724 9 8325997 8325997 74933973 6.2390003439608e+014
12078	27832505 26 323821 323821 33.305776 33.305776 1 0 0 0 0
12079	27832531 29 323821 323821 33.305776 33.305776 1 1072 1072 1072 1149184
12080	27832560 35 323821 323821 33.305776 33.305776 1 4294967295 4294967295 4294967295 1.844674406512e+019
12081	27832595 232 323821 345234 33.305776 36.005724 9 0 0 0 0
12082	27832827 286 323822 345235 33.305776 36.005724 9 8325676 8325685 74931121 6.2385254381303e+014
12083	27833113 286 323822 345235 33.305776 36.005724 9 8325997 8325997 74933973 6.2390003439608e+014
12084	27833399 26 323822 323822 33.305776 33.305776 1 0 0 0 0
12085	27833425 29 323822 323822 33.305776 33.305776 1 1072 1072 1072 1149184
12086	27833454 35 323822 323822 33.305776 33.305776 1 4294967295 4294967295 4294967295 1.844674406512e+019
12087	27833489 232 323822 345235 33.305776 36.005724 9 0 0 0 0
12088	27833721 286 323823 345236 33.305776 36.005724 9 8325676 8325685 74931121 6.2385254381303e+014
12089	27834007 286 323823 345236 33.305776 36.005724 9 8325997 8325997 74933973 6.2390003439608e+014
12090	27834293 26 323823 323823 33.305776 33.305776 1 0 0 0 0
12091	27834319 29 323823 323823 33.305776 33.305776 1 1072 1072 1072 1149184
12092	27834348 35 323823 323823 33.305776 33.305776 1 4294967295 4294967295 4294967295 1.844674406512e+019
12093	27834383 232 323823 345236 33.305776 36.005724 9 0 0 0 0
12094	27834615 286 323824 345237 33.305776 36.005724 9 8325676 8325685 74931121 6.2385254381303e+014
12095	27834901 286 323824 345237 33.305776 36.005724 9 8325997 8325997 74933973 6.2390003439608e+014
12096	27835187 26 323824 323824 33.305776 33.305776 1 0 0 0 0
12097	27835213 29 323824 323824 33.305776 33.305776 1 1072 1072 1072 1149184
12098	27835242 35 323824 323824 33.305776 33.305776 1 4294967295 4294967295 4294967295 1.844674406512e+019
12099	27835277 232 323824 345237 33.305776 36.005724 9 0 0 0 0
12100	27835509 286 323825 345238 33.305776 36.005724 9 8325676 8325685 74931121 6.2385254381303e+014
12101	27835795 286 323825 345238 33.305776 36.005724 9 8325997 8325997 74933973 6.2390003439608e+014
12102	27836081 26 323825 323825 33.305776 33.305776 1 0 0 0 0
12103	27836107 29 323825 323825 33.305776 33.305776 1 1072 1072 1072 1149184
12104	27836136 35 323825 323825 33.305776 33.305776 1 4294967295 4294967295 4294967295 1.844674406512e+019
12105	27836171 232 323825 345238 33.305776 36.005724 9 0 0 0 0
12106	27836403 286 323826 345239 33.305776 36.005724 9 8325676 8325685 74931121 6.2385254381303e+014
12107	27836689 286 323826 345239 33.305776 36.005724 9 8325997 8325997 74933973 6.2390003439608e+014
12108	27836975 26 323826 323826 33.305776 33.305776 1 0 0 0 0
12109	27837001 29 323826 323826 33.305776 33.305776 1 1072 1072 1072 1149184
12110	27837030 35 323826 323826 33.305776 33.305776 1 4294967295 4294967295 4294967295 1.844674406512e+019
12111	27837065 232 323826 345239 33.305776 36.005724 9 0 0 0 0
12112	27837297 286 323827 345240 33.305776 36.005724 9 8325676 8325685 74931121 6.2385254381303e+014
12113	27837583 286 323827 345240 33.305776 36.005724 9 8325997 8325997 74933973 6.2390003439608e+014
12114	27837869 26 323827 323827 33.305776 33.305776 1 0 0 0 0
12115	27837895 29 323827 323827 33.305776 33.305776 1 1072 1072 1072 1149184
12116	27837924 35 323827 323827 33.305776 33.305776 1 4294967295 4294967295 4294967295 1.844674406512e+019
12117	27837959 232 323827 345240 33.305776 36.005724 9 0 0 0 0
12118	27838191 64 323954 338675 33.306652 36.003904 2 0.00176 0.00176 0.00352 6.1952e-006
12119	27838255 66 323954 338675 33.306652 36.003904 2 0.00022 0.0004125 0.0006325 2.1855625e-007
12120	27838321 67 323954 338675 33.306652 36.003904 2 0.57460375 0.65647 1.23107375 0.76112233041406
12121	27838388 65 323954 338675 33.306652 36.003904 2 2.2988275 2.6261 4.9249275 12.181009084756
12122	27838453 259 323954 348783 33.306652 36.00692 9 1072 4824 24656 82741248
12123	27838712 313 323954 348783 33.306652 36.00692 9 4294967295 4294967295 38654705655 1.6602069658608e+020
12124	27839025 232 323954 348783 33.306652 36.00692 9 0 0 0 0
12125	27839257 64 323955 338676 33.306652 36.003904 2 0.00176 0.00176 0.00352 6.1952e-006
12126	27839321 66 323955 338676 33.306652 36.003904 2 0.00022 0.0004125 0.0006325 2.1855625e-007
12127	27839387 67 323955 338676 33.306652 36.003904 2 0.57460375 0.65647 1.23107375 0.76112233041406
12128	27839454 65 323955 338676 33.306652 36.003904 2 2.2988275 2.6261 4.9249275 12.181009084756
12129	27839519 259 323955 348784 33.306652 36.00692 9 1072 4824 24656 82741248
12130	27839778 313 323955 348784 33.306652 36.00692 9 4294967295 4294967295 38654705655 1.6602069658608e+020
12131	27840091 232 323955 348784 33.306652 36.00692 9 0 0 0 0
12132	27840323 64 323956 338677 33.306652 36.003904 2 0.00176 0.00176 0.00352 6.1952e-006
12133	27840387 66 323956 338677 33.306652 36.003904 2 0.00022 0.0004125 0.0006325 2.1855625e-007
12134	27840453 67 323956 338677 33.306652 36.003904 2 0.57460375 0.65647 1.23107375 0.76112233041406
12135	27840520 65 323956 338677 33.306652 36.003904 2 2.2988275 2.6261 4.9249275 12.181009084756
12136	27840585 259 323956 348785 33.306652 36.00692 9 1072 4824 24656 82741248
12137	27840844 313 323956 348785 33.306652 36.00692 9 4294967295 4294967295 38654705655 1.6602069658608e+020
12138	27841157 232 323956 348785 33.306652 36.00692 9 0 0 0 0
12139	27841389 64 323957 338678 33.306652 36.003904 2 0.00176 0.00176 0.00352 6.1952e-006
12140	27841453 66 323957 338678 33.306652 36.003904 2 0.00022 0.0004125 0.0006325 2.1855625e-007
12141	27841519 67 323957 338678 33.306652 36.003904 2 0.57460375 0.65647 1.23107375 0.76112233041406
12142	27841586 65 323957 338678 33.306652 36.003904 2 2.2988275 2.6261 4.9249275 12.181009084756
12143	27841651 259 323957 348786 33.306652 36.00692 9 1072 4824 24656 82741248
12144	27841910 313 323957 348786 33.306652 36.00692 9 4294967295 4294967295 38654705655 1.6602069658608e+020
12145	27842223 232 323957 348786 33.306652 36.00692 9 0 0 0 0
12146	27842455 64 323958 338679 33.306652 36.003904 2 0.00176 0.00176 0.00352 6.1952e-006
12147	27842519 66 323958 338679 33.306652 36.003904 2 0.00022 0.0004125 0.0006325 2.1855625e-007
12148	27842585 67 323958 338679 33.306652 36.003904 2 0.57460375 0.65647 1.23107375 0.76112233041406
12149	27842652 65 323958 338679 33.306652 36.003904 2 2.2988275 2.6261 4.9249275 12.181009084756
12150	27842717 259 323958 348787 33.306652 36.00692 9 1072 4824 24656 82741248
12151	27842976 313 323958 348787 33.306652 36.00692 9 4294967295 4294967295 38654705655 1.6602069658608e+020
12152	27843289 232 323958 348787 33.306652 36.00692 9 0 0 0 0
12153	27843521 64 323959 338680 33.306652 36.003904 2 0.00176 0.00176 0.00352 6.1952e-006
12154	27843585 66 323959 338680 33.306652 36.003904 2 0.00022 0.0004125 0.0006325 2.1855625e-007
12155	27843651 67 323959 338680 33.306652 36.003904 2 0.57460375 0.65647 1.23107375 0.76112233041406
12156	27843718 65 323959 338680 33.306652 36.003904 2 2.2988275 2.6261 4.9249275 12.181009084756
12157	27843783 259 323959 348788 33.306652 36.00692 9 1072 4824 24656 82741248
12158	27844042 313 323959 348788 33.306652 36.00692 9 4294967295 4294967295 38654705655 1.6602069658608e+020
12159	27844355 232 323959 348788 33.306652 36.00692 9 0 0 0 0
12160	27844587 64 323960 338681 33.306652 36.003904 2 0.00176 0.00176 0.00352 6.1952e-006
12161	27844651 66 323960 338681 33.306652 36.003904 2 0.00022 0.0004125 0.0006325 2.1855625e-007
12162	27844717 67 323960 338681 33.306652 36.003904 2 0.57460375 0.65647 1.23107375 0.76112233041406
12163	27844784 65 323960 338681 33.306652 36.003904 2 2.2988275 2.6261 4.9249275 12.181009084756
12164	27844849 259 323960 348789 33.306652 36.00692 9 1072 4824 24656 82741248
12165	27845108 313 323960 348789 33.306652 36.00692 9 4294967295 4294967295 38654705655 1.6602069658608e+020
12166	27845421 232 323960 348789 33.306652 36.00692 9 0 0 0 0
12167	27845653 64 323961 338682 33.306652 36.003904 2 0.00176 0.00176 0.00352 6.1952e-006
12168	27845717 66 323961 338682 33.306652 36.003904 2 0.00022 0.0004125 0.0006325 2.1855625e-007
12169	27845783 67 323961 338682 33.306652 36.003904 2 0.57460375 0.65647 1.23107375 0.76112233041406
12170	27845850 65 323961 338682 33.306652 36.003904 2 2.2988275 2.6261 4.9249275 12.181009084756
12171	27845915 259 323961 348790 33.306652 36.00692 9 1072 4824 24656 82741248
12172	27846174 313 323961 348790 33.306652 36.00692 9 4294967295 4294967295 38654705655 1.6602069658608e+020
12173	27846487 232 323961 348790 33.306652 36.00692 9 0 0 0 0
12174	27846719 64 323962 338683 33.306652 36.003904 2 0.00176 0.00176 0.00352 6.1952e-006
12175	27846783 66 323962 338683 33.306652 36.003904 2 0.00022 0.0004125 0.0006325 2.1855625e-007
12176	27846849 67 323962 338683 33.306652 36.003904 2 0.57460375 0.65647 1.23107375 0.76112233041406
12177	27846916 65 323962 338683 33.306652 36.003904 2 2.2988275 2.6261 4.9249275 12.181009084756
12178	27846981 259 323962 348791 33.306652 36.00692 9 1072 4824 24656 82741248
12179	27847240 313 323962 348791 33.306652 36.00692 9 4294967295 4294967295 38654705655 1.6602069658608e+020
12180	27847553 232 323962 348791 33.306652 36.00692 9 0 0 0 0
12181	27847785 64 323963 338684 33.306652 36.003904 2 0.00176 0.00176 0.00352 6.1952e-006
12182	27847849 66 323963 338684 33.306652 36.003904 2 0.00022 0.0004125 0.0006325 2.1855625e-007
12183	27847915 67 323963 338684 33.306652 36.003904 2 0.57460375 0.65647 1.23107375 0.76112233041406
12184	27847982 65 323963 338684 33.306652 36.003904 2 2.2988275 2.6261 4.9249275 12.181009084756
12185	27848047 259 323963 348792 33.306652 36.00692 9 1072 4824 24656 82741248
12186	27848306 313 323963 348792 33.306652 36.00692 9 4294967295 4294967295 38654705655 1.6602069658608e+020
12187	27848619 232 323963 348792 33.306652 36.00692 9 0 0 0 0
12188	27848851 64 323964 338685 33.306652 36.003904 2 0.00176 0.00176 0.00352 6.1952e-006
12189	27848915 66 323964 338685 33.306652 36.003904 2 0.00022 0.0004125 0.0006325 2.1855625e-007
12190	27848981 67 323964 338685 33.306652 36.003904 2 0.57460375 0.65647 1.23107375 0.76112233041406
12191	27849048 65 323964 338685 33.306652 36.003904 2 2.2988275 2.6261 4.9249275 12.181009084756
12192	27849113 259 323964 348793 33.306652 36.00692 9 1072 4824 24656 82741248
12193	27849372 313 323964 348793 33.306652 36.00692 9 4294967295 4294967295 38654705655 1.6602069658608e+020
12194	27849685 232 323964 348793 33.306652 36.00692 9 0 0 0 0
12195	27849917 64 323965 338686 33.306652 36.003904 2 0.00176 0.00176 0.00352 6.1952e-006
12196	27849981 66 323965 338686 33.306652 36.003904 2 0.00022 0.0004125 0.0006325 2.1855625e-007
12197	27850047 67 323965 338686 33.306652 36.003904 2 0.57460375 0.65647 1.23107375 0.76112233041406
12198	27850114 65 323965 338686 33.306652 36.003904 2 2.2988275 2.6261 4.9249275 12.181009084756
12199	27850179 259 323965 348794 33.306652 36.00692 9 1072 4824 24656 82741248
12200	27850438 313 323965 348794 33.306652 36.00692 9 4294967295 4294967295 38654705655 1.6602069658608e+020
12201	27850751 232 323965 348794 33.306652 36.00692 9 0 0 0 0
12202	27850983 64 323966 338687 33.306652 36.003904 2 0.00176 0.00176 0.00352 6.1952e-006
12203	27851047 66 323966 338687 33.306652 36.003904 2 0.00022 0.0004125 0.0006325 2.1855625e-007
12204	27851113 67 323966 338687 33.306652 36.003904 2 0.57460375 0.65647 1.23107375 0.76112233041406
12205	27851180 65 323966 338687 33.306652 36.003904 2 2.2988275 2.6261 4.9249275 12.181009084756
12206	27851245 259 323966 348795 33.306652 36.00692 9 1072 4824 24656 82741248
12207	27851504 313 323966 348795 33.306652 36.00692 9 4294967295 4294967295 38654705655 1.6602069658608e+020
12208	27851817 232 323966 348795 33.306652 36.00692 9 0 0 0 0
12209	27852049 64 323967 338688 33.306652 36.003904 2 0.00176 0.00176 0.00352 6.1952e-006
12210	27852113 66 323967 338688 33.306652 36.003904 2 0.00022 0.0004125 0.0006325 2.1855625e-007
12211	27852179 67 323967 338688 33.306652 36.003904 2 0.57460375 0.65647 1.23107375 0.76112233041406
12212	27852246 65 323967 338688 33.306652 36.003904 2 2.2988275 2.6261 4.9249275 12.181009084756
12213	27852311 259 323967 348796 33.306652 36.00692 9 1072 4824 24656 82741248
12214	27852570 313 323967 348796 33.306652 36.00692 9 4294967295 4294967295 38654705655 1.6602069658608e+020
12215	27852883 232 323967 348796 33.306652 36.00692 9 0 0 0 0

