version 2
run BROADCAST5-0-20220110-16:46:56-5664
attr configname BROADCAST5
attr datetime 20220110-16:46:56
attr experiment BROADCAST5
attr inifile omnetpp.ini
attr iterationvars ""
attr iterationvarsf ""
attr measurement ""
attr network scenario
attr processid 5664
attr repetition 0
attr replication #0
attr resultdir results
attr runnumber 0
attr seedset 0
param **.client3.app[0].join 0.35
param **.client4.app[0].join 0.40
param **.client*.app[*].timer 0.2
param **.ppp[*].ppp.queue.typename "\"DropTailQueue\""
param **.tcp.typename "\"Tcp\""
param **.tcp.nagleEnabled false
param **.cli*.app[*].nPar 5
param **.cli*.app[*].fPar 0
param **.numApps 1
param **.client0.app[*].typename "\"Node\""
param **.client0.app[0].localPort 1000
param **.client0.app[0].localPortL 1234
param **.client0.app[0].connectAddress "\"\""
param **.client0.app[0].connectPort 1234
param **.client1.app[*].typename "\"Node\""
param **.client1.app[0].localPort 1001
param **.client1.app[0].localPortL 1234
param **.client1.app[0].connectAddress "\"\""
param **.client1.app[0].connectPort 1234
param **.client2.app[*].typename "\"Node\""
param **.client2.app[0].localPort 1002
param **.client2.app[0].localPortL 1234
param **.client2.app[0].connectAddress "\"\""
param **.client2.app[0].connectPort 1234
param **.client3.app[*].typename "\"Node\""
param **.client3.app[0].localPort 1003
param **.client3.app[0].localPortL 1234
param **.client3.app[0].connectAddress "\"\""
param **.client3.app[0].connectPort 1234
param **.client4.app[*].typename "\"Node\""
param **.client4.app[0].localPort 1004
param **.client4.app[0].localPortL 1234
param **.client4.app[0].connectAddress "\"\""
param **.client4.app[0].connectPort 1234
param *.configurator.dumpAddresses true
param *.configurator.dumpTopology true
param *.configurator.dumpLinks true
param *.configurator.dumpRoutes true

vector 0 scenario.client0.ppp[0].ppp transmissionState:vector ETV
attr interpolationmode sample-hold
attr source transmissionStateChanged
attr title "tx state, vector"
vector 1 scenario.client0.ppp[1].ppp transmissionState:vector ETV
attr interpolationmode sample-hold
attr source transmissionStateChanged
attr title "tx state, vector"
vector 2 scenario.client0.ppp[2].ppp transmissionState:vector ETV
attr interpolationmode sample-hold
attr source transmissionStateChanged
attr title "tx state, vector"
vector 3 scenario.client0.ppp[3].ppp transmissionState:vector ETV
attr interpolationmode sample-hold
attr source transmissionStateChanged
attr title "tx state, vector"
vector 4 scenario.client1.ppp[0].ppp transmissionState:vector ETV
attr interpolationmode sample-hold
attr source transmissionStateChanged
attr title "tx state, vector"
vector 5 scenario.client1.ppp[1].ppp transmissionState:vector ETV
attr interpolationmode sample-hold
attr source transmissionStateChanged
attr title "tx state, vector"
vector 6 scenario.client1.ppp[2].ppp transmissionState:vector ETV
attr interpolationmode sample-hold
attr source transmissionStateChanged
attr title "tx state, vector"
vector 7 scenario.client1.ppp[3].ppp transmissionState:vector ETV
attr interpolationmode sample-hold
attr source transmissionStateChanged
attr title "tx state, vector"
vector 8 scenario.client2.ppp[0].ppp transmissionState:vector ETV
attr interpolationmode sample-hold
attr source transmissionStateChanged
attr title "tx state, vector"
vector 9 scenario.client2.ppp[1].ppp transmissionState:vector ETV
attr interpolationmode sample-hold
attr source transmissionStateChanged
attr title "tx state, vector"
vector 10 scenario.client2.ppp[2].ppp transmissionState:vector ETV
attr interpolationmode sample-hold
attr source transmissionStateChanged
attr title "tx state, vector"
vector 11 scenario.client2.ppp[3].ppp transmissionState:vector ETV
attr interpolationmode sample-hold
attr source transmissionStateChanged
attr title "tx state, vector"
vector 12 scenario.client3.ppp[0].ppp transmissionState:vector ETV
attr interpolationmode sample-hold
attr source transmissionStateChanged
attr title "tx state, vector"
vector 13 scenario.client3.ppp[1].ppp transmissionState:vector ETV
attr interpolationmode sample-hold
attr source transmissionStateChanged
attr title "tx state, vector"
vector 14 scenario.client3.ppp[2].ppp transmissionState:vector ETV
attr interpolationmode sample-hold
attr source transmissionStateChanged
attr title "tx state, vector"
vector 15 scenario.client3.ppp[3].ppp transmissionState:vector ETV
attr interpolationmode sample-hold
attr source transmissionStateChanged
attr title "tx state, vector"
vector 16 scenario.client4.ppp[0].ppp transmissionState:vector ETV
attr interpolationmode sample-hold
attr source transmissionStateChanged
attr title "tx state, vector"
vector 17 scenario.client4.ppp[1].ppp transmissionState:vector ETV
attr interpolationmode sample-hold
attr source transmissionStateChanged
attr title "tx state, vector"
vector 18 scenario.client4.ppp[2].ppp transmissionState:vector ETV
attr interpolationmode sample-hold
attr source transmissionStateChanged
attr title "tx state, vector"
vector 19 scenario.client4.ppp[3].ppp transmissionState:vector ETV
attr interpolationmode sample-hold
attr source transmissionStateChanged
attr title "tx state, vector"
vector 20 scenario.client3.tcp.conn-25 tcpRcvQueueBytes:vector ETV
attr interpolationmode sample-hold
vector 21 scenario.client3.tcp.conn-25 rcvAdv:vector ETV
attr interpolationmode sample-hold
vector 22 scenario.client3.tcp.conn-25 rcvWnd:vector ETV
attr interpolationmode sample-hold
vector 23 scenario.client3.tcp.conn-25 sndAck:vector ETV
attr interpolationmode sample-hold
vector 24 scenario.client3.ppp[1].ppp rcvdPkFromHl:vector(packetBytes) ETV
attr interpolationmode none
attr source packetReceivedFromUpper
attr title "packets received from higher layer, vector(packetBytes)"
vector 25 scenario.client3.ppp[1].ppp.queue packetPushed:vector(packetBytes) ETV
attr interpolationmode none
attr title "packet pushed, vector(packetBytes)"
vector 26 scenario.client3.ppp[1].ppp.queue queueLength:vector ETV
attr interpolationmode sample-hold
attr source "count(packetPushed) - count(packetPopped) - count(packetRemoved) - count(packetDropped)"
attr title "queue length, vector"
vector 27 scenario.client3.ppp[1].ppp.queue packetPopped:vector(packetBytes) ETV
attr interpolationmode none
attr title "packet popped, vector(packetBytes)"
vector 28 scenario.client3.ppp[1].ppp.queue queueingTime:vector ETV
attr interpolationmode none
attr source queueingTime(packetPopped)
attr title "queueing times, vector"
attr unit s
vector 29 scenario.client3.ppp[1].ppp txPk:vector(packetBytes) ETV
attr interpolationmode none
attr source packetSentToLower
attr title "packets transmitted, vector(packetBytes)"
vector 30 scenario.client1.ppp[2].ppp rxPkOk:vector(packetBytes) ETV
attr interpolationmode none
attr source rxPkOk
attr title "packets received OK, vector(packetBytes)"
vector 31 scenario.client1.ppp[2].ppp passedUpPk:vector(packetBytes) ETV
attr interpolationmode none
attr source packetSentToUpper
attr title "packets passed to higher layer, vector(packetBytes)"
vector 32 scenario.client1.tcp.conn-1 rcvSeq:vector ETV
attr interpolationmode sample-hold
vector 33 scenario.client1.tcp.conn-1 rcvAck:vector ETV
attr interpolationmode sample-hold
vector 34 scenario.client1.tcp.conn-26 rcvAdv:vector ETV
attr interpolationmode sample-hold
vector 35 scenario.client1.tcp.conn-26 sndWnd:vector ETV
attr interpolationmode sample-hold
vector 36 scenario.client1.tcp.conn-26 tcpRcvQueueBytes:vector ETV
attr interpolationmode sample-hold
vector 37 scenario.client1.tcp.conn-26 rcvWnd:vector ETV
attr interpolationmode sample-hold
vector 38 scenario.client1.tcp.conn-26 sndAck:vector ETV
attr interpolationmode sample-hold
vector 39 scenario.client1.ppp[2].ppp rcvdPkFromHl:vector(packetBytes) ETV
attr interpolationmode none
attr source packetReceivedFromUpper
attr title "packets received from higher layer, vector(packetBytes)"
vector 40 scenario.client1.ppp[2].ppp.queue packetPushed:vector(packetBytes) ETV
attr interpolationmode none
attr title "packet pushed, vector(packetBytes)"
vector 41 scenario.client1.ppp[2].ppp.queue queueLength:vector ETV
attr interpolationmode sample-hold
attr source "count(packetPushed) - count(packetPopped) - count(packetRemoved) - count(packetDropped)"
attr title "queue length, vector"
vector 42 scenario.client1.ppp[2].ppp.queue packetPopped:vector(packetBytes) ETV
attr interpolationmode none
attr title "packet popped, vector(packetBytes)"
vector 43 scenario.client1.ppp[2].ppp.queue queueingTime:vector ETV
attr interpolationmode none
attr source queueingTime(packetPopped)
attr title "queueing times, vector"
attr unit s
vector 44 scenario.client1.ppp[2].ppp txPk:vector(packetBytes) ETV
attr interpolationmode none
attr source packetSentToLower
attr title "packets transmitted, vector(packetBytes)"
vector 45 scenario.client3.ppp[1].ppp rxPkOk:vector(packetBytes) ETV
attr interpolationmode none
attr source rxPkOk
attr title "packets received OK, vector(packetBytes)"
vector 46 scenario.client3.ppp[1].ppp passedUpPk:vector(packetBytes) ETV
attr interpolationmode none
attr source packetSentToUpper
attr title "packets passed to higher layer, vector(packetBytes)"
vector 47 scenario.client3.tcp.conn-25 rcvSeq:vector ETV
attr interpolationmode sample-hold
vector 48 scenario.client3.tcp.conn-25 rcvAck:vector ETV
attr interpolationmode sample-hold
vector 49 scenario.client3.tcp.conn-25 sndWnd:vector ETV
attr interpolationmode sample-hold
vector 50 scenario.client3.tcp.conn-25 unacked:vector ETV
attr interpolationmode sample-hold
vector 51 scenario.client1.tcp.conn-26 rcvSeq:vector ETV
attr interpolationmode sample-hold
vector 52 scenario.client1.tcp.conn-26 rcvAck:vector ETV
attr interpolationmode sample-hold
vector 53 scenario.client1.tcp.conn-26 unacked:vector ETV
attr interpolationmode sample-hold
vector 54 scenario.client1.tcp.conn-26 cwnd:vector ETV
attr interpolationmode sample-hold
vector 55 scenario.client1.tcp.conn-26 ssthresh:vector ETV
attr interpolationmode sample-hold
vector 56 scenario.client1.tcp.conn-26 dupAcks:vector ETV
attr interpolationmode sample-hold
vector 57 scenario.client3.tcp.conn-25 rtt:vector ETV
attr interpolationmode sample-hold
vector 58 scenario.client3.tcp.conn-25 srtt:vector ETV
attr interpolationmode sample-hold
vector 59 scenario.client3.tcp.conn-25 rttvar:vector ETV
attr interpolationmode sample-hold
vector 60 scenario.client3.tcp.conn-25 rto:vector ETV
attr interpolationmode sample-hold
vector 61 scenario.client3.tcp.conn-25 cwnd:vector ETV
attr interpolationmode sample-hold
vector 62 scenario.client3.tcp.conn-25 ssthresh:vector ETV
attr interpolationmode sample-hold
vector 63 scenario.client3.tcp.conn-25 dupAcks:vector ETV
attr interpolationmode sample-hold
vector 64 scenario.client1.tcp.conn-27 tcpRcvQueueBytes:vector ETV
attr interpolationmode sample-hold
vector 65 scenario.client1.tcp.conn-27 rcvAdv:vector ETV
attr interpolationmode sample-hold
vector 66 scenario.client1.tcp.conn-27 rcvWnd:vector ETV
attr interpolationmode sample-hold
vector 67 scenario.client1.tcp.conn-27 sndAck:vector ETV
attr interpolationmode sample-hold
vector 68 scenario.client1.ppp[0].ppp rcvdPkFromHl:vector(packetBytes) ETV
attr interpolationmode none
attr source packetReceivedFromUpper
attr title "packets received from higher layer, vector(packetBytes)"
vector 69 scenario.client1.ppp[0].ppp.queue packetPushed:vector(packetBytes) ETV
attr interpolationmode none
attr title "packet pushed, vector(packetBytes)"
vector 70 scenario.client1.ppp[0].ppp.queue queueLength:vector ETV
attr interpolationmode sample-hold
attr source "count(packetPushed) - count(packetPopped) - count(packetRemoved) - count(packetDropped)"
attr title "queue length, vector"
vector 71 scenario.client1.ppp[0].ppp.queue packetPopped:vector(packetBytes) ETV
attr interpolationmode none
attr title "packet popped, vector(packetBytes)"
vector 72 scenario.client1.ppp[0].ppp.queue queueingTime:vector ETV
attr interpolationmode none
attr source queueingTime(packetPopped)
attr title "queueing times, vector"
attr unit s
vector 73 scenario.client1.ppp[0].ppp txPk:vector(packetBytes) ETV
attr interpolationmode none
attr source packetSentToLower
attr title "packets transmitted, vector(packetBytes)"
vector 74 scenario.client0.ppp[0].ppp rxPkOk:vector(packetBytes) ETV
attr interpolationmode none
attr source rxPkOk
attr title "packets received OK, vector(packetBytes)"
vector 75 scenario.client0.ppp[0].ppp passedUpPk:vector(packetBytes) ETV
attr interpolationmode none
attr source packetSentToUpper
attr title "packets passed to higher layer, vector(packetBytes)"
vector 76 scenario.client0.tcp.conn-0 rcvSeq:vector ETV
attr interpolationmode sample-hold
vector 77 scenario.client0.tcp.conn-0 rcvAck:vector ETV
attr interpolationmode sample-hold
vector 78 scenario.client0.tcp.conn-28 rcvAdv:vector ETV
attr interpolationmode sample-hold
vector 79 scenario.client0.tcp.conn-28 sndWnd:vector ETV
attr interpolationmode sample-hold
vector 80 scenario.client0.tcp.conn-28 tcpRcvQueueBytes:vector ETV
attr interpolationmode sample-hold
vector 81 scenario.client0.tcp.conn-28 rcvWnd:vector ETV
attr interpolationmode sample-hold
vector 82 scenario.client0.tcp.conn-28 sndAck:vector ETV
attr interpolationmode sample-hold
vector 83 scenario.client0.ppp[0].ppp rcvdPkFromHl:vector(packetBytes) ETV
attr interpolationmode none
attr source packetReceivedFromUpper
attr title "packets received from higher layer, vector(packetBytes)"
vector 84 scenario.client0.ppp[0].ppp.queue packetPushed:vector(packetBytes) ETV
attr interpolationmode none
attr title "packet pushed, vector(packetBytes)"
vector 85 scenario.client0.ppp[0].ppp.queue queueLength:vector ETV
attr interpolationmode sample-hold
attr source "count(packetPushed) - count(packetPopped) - count(packetRemoved) - count(packetDropped)"
attr title "queue length, vector"
vector 86 scenario.client0.ppp[0].ppp.queue packetPopped:vector(packetBytes) ETV
attr interpolationmode none
attr title "packet popped, vector(packetBytes)"
vector 87 scenario.client0.ppp[0].ppp.queue queueingTime:vector ETV
attr interpolationmode none
attr source queueingTime(packetPopped)
attr title "queueing times, vector"
attr unit s
vector 88 scenario.client0.ppp[0].ppp txPk:vector(packetBytes) ETV
attr interpolationmode none
attr source packetSentToLower
attr title "packets transmitted, vector(packetBytes)"
vector 89 scenario.client1.ppp[0].ppp rxPkOk:vector(packetBytes) ETV
attr interpolationmode none
attr source rxPkOk
attr title "packets received OK, vector(packetBytes)"
vector 90 scenario.client1.ppp[0].ppp passedUpPk:vector(packetBytes) ETV
attr interpolationmode none
attr source packetSentToUpper
attr title "packets passed to higher layer, vector(packetBytes)"
vector 91 scenario.client1.tcp.conn-27 rcvSeq:vector ETV
attr interpolationmode sample-hold
vector 92 scenario.client1.tcp.conn-27 rcvAck:vector ETV
attr interpolationmode sample-hold
vector 93 scenario.client1.tcp.conn-27 sndWnd:vector ETV
attr interpolationmode sample-hold
vector 94 scenario.client1.tcp.conn-27 unacked:vector ETV
attr interpolationmode sample-hold
vector 95 scenario.client0.tcp.conn-28 rcvSeq:vector ETV
attr interpolationmode sample-hold
vector 96 scenario.client0.tcp.conn-28 rcvAck:vector ETV
attr interpolationmode sample-hold
vector 97 scenario.client0.tcp.conn-28 unacked:vector ETV
attr interpolationmode sample-hold
vector 98 scenario.client0.tcp.conn-28 cwnd:vector ETV
attr interpolationmode sample-hold
vector 99 scenario.client0.tcp.conn-28 ssthresh:vector ETV
attr interpolationmode sample-hold
vector 100 scenario.client0.tcp.conn-28 dupAcks:vector ETV
attr interpolationmode sample-hold
vector 101 scenario.client3.tcp.conn-29 tcpRcvQueueBytes:vector ETV
attr interpolationmode sample-hold
vector 102 scenario.client3.tcp.conn-29 rcvAdv:vector ETV
attr interpolationmode sample-hold
vector 103 scenario.client3.tcp.conn-29 rcvWnd:vector ETV
attr interpolationmode sample-hold
vector 104 scenario.client3.tcp.conn-29 sndAck:vector ETV
attr interpolationmode sample-hold
vector 105 scenario.client3.ppp[2].ppp rcvdPkFromHl:vector(packetBytes) ETV
attr interpolationmode none
attr source packetReceivedFromUpper
attr title "packets received from higher layer, vector(packetBytes)"
vector 106 scenario.client3.ppp[2].ppp.queue packetPushed:vector(packetBytes) ETV
attr interpolationmode none
attr title "packet pushed, vector(packetBytes)"
vector 107 scenario.client3.ppp[2].ppp.queue queueLength:vector ETV
attr interpolationmode sample-hold
attr source "count(packetPushed) - count(packetPopped) - count(packetRemoved) - count(packetDropped)"
attr title "queue length, vector"
vector 108 scenario.client3.ppp[2].ppp.queue packetPopped:vector(packetBytes) ETV
attr interpolationmode none
attr title "packet popped, vector(packetBytes)"
vector 109 scenario.client3.ppp[2].ppp.queue queueingTime:vector ETV
attr interpolationmode none
attr source queueingTime(packetPopped)
attr title "queueing times, vector"
attr unit s
vector 110 scenario.client3.ppp[2].ppp txPk:vector(packetBytes) ETV
attr interpolationmode none
attr source packetSentToLower
attr title "packets transmitted, vector(packetBytes)"
vector 111 scenario.client1.tcp.conn-27 rtt:vector ETV
attr interpolationmode sample-hold
vector 112 scenario.client1.tcp.conn-27 srtt:vector ETV
attr interpolationmode sample-hold
vector 113 scenario.client1.tcp.conn-27 rttvar:vector ETV
attr interpolationmode sample-hold
vector 114 scenario.client1.tcp.conn-27 rto:vector ETV
attr interpolationmode sample-hold
vector 115 scenario.client1.tcp.conn-27 cwnd:vector ETV
attr interpolationmode sample-hold
vector 116 scenario.client1.tcp.conn-27 ssthresh:vector ETV
attr interpolationmode sample-hold
vector 117 scenario.client1.tcp.conn-27 dupAcks:vector ETV
attr interpolationmode sample-hold
vector 118 scenario.client2.ppp[2].ppp rxPkOk:vector(packetBytes) ETV
attr interpolationmode none
attr source rxPkOk
attr title "packets received OK, vector(packetBytes)"
vector 119 scenario.client2.ppp[2].ppp passedUpPk:vector(packetBytes) ETV
attr interpolationmode none
attr source packetSentToUpper
attr title "packets passed to higher layer, vector(packetBytes)"
vector 120 scenario.client2.tcp.conn-2 rcvSeq:vector ETV
attr interpolationmode sample-hold
vector 121 scenario.client2.tcp.conn-2 rcvAck:vector ETV
attr interpolationmode sample-hold
vector 122 scenario.client2.tcp.conn-30 rcvAdv:vector ETV
attr interpolationmode sample-hold
vector 123 scenario.client2.tcp.conn-30 sndWnd:vector ETV
attr interpolationmode sample-hold
vector 124 scenario.client2.tcp.conn-30 tcpRcvQueueBytes:vector ETV
attr interpolationmode sample-hold
vector 125 scenario.client2.tcp.conn-30 rcvWnd:vector ETV
attr interpolationmode sample-hold
vector 126 scenario.client2.tcp.conn-30 sndAck:vector ETV
attr interpolationmode sample-hold
vector 127 scenario.client2.ppp[2].ppp rcvdPkFromHl:vector(packetBytes) ETV
attr interpolationmode none
attr source packetReceivedFromUpper
attr title "packets received from higher layer, vector(packetBytes)"
vector 128 scenario.client2.ppp[2].ppp.queue packetPushed:vector(packetBytes) ETV
attr interpolationmode none
attr title "packet pushed, vector(packetBytes)"
vector 129 scenario.client2.ppp[2].ppp.queue queueLength:vector ETV
attr interpolationmode sample-hold
attr source "count(packetPushed) - count(packetPopped) - count(packetRemoved) - count(packetDropped)"
attr title "queue length, vector"
vector 130 scenario.client2.ppp[2].ppp.queue packetPopped:vector(packetBytes) ETV
attr interpolationmode none
attr title "packet popped, vector(packetBytes)"
vector 131 scenario.client2.ppp[2].ppp.queue queueingTime:vector ETV
attr interpolationmode none
attr source queueingTime(packetPopped)
attr title "queueing times, vector"
attr unit s
vector 132 scenario.client2.ppp[2].ppp txPk:vector(packetBytes) ETV
attr interpolationmode none
attr source packetSentToLower
attr title "packets transmitted, vector(packetBytes)"
vector 133 scenario.client3.ppp[2].ppp rxPkOk:vector(packetBytes) ETV
attr interpolationmode none
attr source rxPkOk
attr title "packets received OK, vector(packetBytes)"
vector 134 scenario.client3.ppp[2].ppp passedUpPk:vector(packetBytes) ETV
attr interpolationmode none
attr source packetSentToUpper
attr title "packets passed to higher layer, vector(packetBytes)"
vector 135 scenario.client3.tcp.conn-29 rcvSeq:vector ETV
attr interpolationmode sample-hold
vector 136 scenario.client3.tcp.conn-29 rcvAck:vector ETV
attr interpolationmode sample-hold
vector 137 scenario.client3.tcp.conn-29 sndWnd:vector ETV
attr interpolationmode sample-hold
vector 138 scenario.client3.tcp.conn-29 unacked:vector ETV
attr interpolationmode sample-hold
vector 139 scenario.client2.tcp.conn-30 rcvSeq:vector ETV
attr interpolationmode sample-hold
vector 140 scenario.client2.tcp.conn-30 rcvAck:vector ETV
attr interpolationmode sample-hold
vector 141 scenario.client2.tcp.conn-30 unacked:vector ETV
attr interpolationmode sample-hold
vector 142 scenario.client2.tcp.conn-30 cwnd:vector ETV
attr interpolationmode sample-hold
vector 143 scenario.client2.tcp.conn-30 ssthresh:vector ETV
attr interpolationmode sample-hold
vector 144 scenario.client2.tcp.conn-30 dupAcks:vector ETV
attr interpolationmode sample-hold
vector 145 scenario.client3.tcp.conn-29 rtt:vector ETV
attr interpolationmode sample-hold
vector 146 scenario.client3.tcp.conn-29 srtt:vector ETV
attr interpolationmode sample-hold
vector 147 scenario.client3.tcp.conn-29 rttvar:vector ETV
attr interpolationmode sample-hold
vector 148 scenario.client3.tcp.conn-29 rto:vector ETV
attr interpolationmode sample-hold
vector 149 scenario.client3.tcp.conn-29 cwnd:vector ETV
attr interpolationmode sample-hold
vector 150 scenario.client3.tcp.conn-29 ssthresh:vector ETV
attr interpolationmode sample-hold
vector 151 scenario.client3.tcp.conn-29 dupAcks:vector ETV
attr interpolationmode sample-hold
vector 152 scenario.client4.tcp.conn-31 tcpRcvQueueBytes:vector ETV
attr interpolationmode sample-hold
vector 153 scenario.client4.tcp.conn-31 rcvAdv:vector ETV
attr interpolationmode sample-hold
vector 154 scenario.client4.tcp.conn-31 rcvWnd:vector ETV
attr interpolationmode sample-hold
vector 155 scenario.client4.tcp.conn-31 sndAck:vector ETV
attr interpolationmode sample-hold
vector 156 scenario.client4.ppp[2].ppp rcvdPkFromHl:vector(packetBytes) ETV
attr interpolationmode none
attr source packetReceivedFromUpper
attr title "packets received from higher layer, vector(packetBytes)"
vector 157 scenario.client4.ppp[2].ppp.queue packetPushed:vector(packetBytes) ETV
attr interpolationmode none
attr title "packet pushed, vector(packetBytes)"
vector 158 scenario.client4.ppp[2].ppp.queue queueLength:vector ETV
attr interpolationmode sample-hold
attr source "count(packetPushed) - count(packetPopped) - count(packetRemoved) - count(packetDropped)"
attr title "queue length, vector"
vector 159 scenario.client4.ppp[2].ppp.queue packetPopped:vector(packetBytes) ETV
attr interpolationmode none
attr title "packet popped, vector(packetBytes)"
vector 160 scenario.client4.ppp[2].ppp.queue queueingTime:vector ETV
attr interpolationmode none
attr source queueingTime(packetPopped)
attr title "queueing times, vector"
attr unit s
vector 161 scenario.client4.ppp[2].ppp txPk:vector(packetBytes) ETV
attr interpolationmode none
attr source packetSentToLower
attr title "packets transmitted, vector(packetBytes)"
vector 162 scenario.client2.ppp[3].ppp rxPkOk:vector(packetBytes) ETV
attr interpolationmode none
attr source rxPkOk
attr title "packets received OK, vector(packetBytes)"
vector 163 scenario.client2.ppp[3].ppp passedUpPk:vector(packetBytes) ETV
attr interpolationmode none
attr source packetSentToUpper
attr title "packets passed to higher layer, vector(packetBytes)"
vector 164 scenario.client2.tcp.conn-32 rcvAdv:vector ETV
attr interpolationmode sample-hold
vector 165 scenario.client2.tcp.conn-32 sndWnd:vector ETV
attr interpolationmode sample-hold
vector 166 scenario.client2.tcp.conn-32 tcpRcvQueueBytes:vector ETV
attr interpolationmode sample-hold
vector 167 scenario.client2.tcp.conn-32 rcvWnd:vector ETV
attr interpolationmode sample-hold
vector 168 scenario.client2.tcp.conn-32 sndAck:vector ETV
attr interpolationmode sample-hold
vector 169 scenario.client2.ppp[3].ppp rcvdPkFromHl:vector(packetBytes) ETV
attr interpolationmode none
attr source packetReceivedFromUpper
attr title "packets received from higher layer, vector(packetBytes)"
vector 170 scenario.client2.ppp[3].ppp.queue packetPushed:vector(packetBytes) ETV
attr interpolationmode none
attr title "packet pushed, vector(packetBytes)"
vector 171 scenario.client2.ppp[3].ppp.queue queueLength:vector ETV
attr interpolationmode sample-hold
attr source "count(packetPushed) - count(packetPopped) - count(packetRemoved) - count(packetDropped)"
attr title "queue length, vector"
vector 172 scenario.client2.ppp[3].ppp.queue packetPopped:vector(packetBytes) ETV
attr interpolationmode none
attr title "packet popped, vector(packetBytes)"
vector 173 scenario.client2.ppp[3].ppp.queue queueingTime:vector ETV
attr interpolationmode none
attr source queueingTime(packetPopped)
attr title "queueing times, vector"
attr unit s
vector 174 scenario.client2.ppp[3].ppp txPk:vector(packetBytes) ETV
attr interpolationmode none
attr source packetSentToLower
attr title "packets transmitted, vector(packetBytes)"
vector 175 scenario.client4.ppp[2].ppp rxPkOk:vector(packetBytes) ETV
attr interpolationmode none
attr source rxPkOk
attr title "packets received OK, vector(packetBytes)"
vector 176 scenario.client4.ppp[2].ppp passedUpPk:vector(packetBytes) ETV
attr interpolationmode none
attr source packetSentToUpper
attr title "packets passed to higher layer, vector(packetBytes)"
vector 177 scenario.client4.tcp.conn-31 rcvSeq:vector ETV
attr interpolationmode sample-hold
vector 178 scenario.client4.tcp.conn-31 rcvAck:vector ETV
attr interpolationmode sample-hold
vector 179 scenario.client4.tcp.conn-31 sndWnd:vector ETV
attr interpolationmode sample-hold
vector 180 scenario.client4.tcp.conn-31 unacked:vector ETV
attr interpolationmode sample-hold
vector 181 scenario.client2.tcp.conn-32 rcvSeq:vector ETV
attr interpolationmode sample-hold
vector 182 scenario.client2.tcp.conn-32 rcvAck:vector ETV
attr interpolationmode sample-hold
vector 183 scenario.client2.tcp.conn-32 unacked:vector ETV
attr interpolationmode sample-hold
vector 184 scenario.client2.tcp.conn-32 cwnd:vector ETV
attr interpolationmode sample-hold
vector 185 scenario.client2.tcp.conn-32 ssthresh:vector ETV
attr interpolationmode sample-hold
vector 186 scenario.client2.tcp.conn-32 dupAcks:vector ETV
attr interpolationmode sample-hold
vector 187 scenario.client4.tcp.conn-31 rtt:vector ETV
attr interpolationmode sample-hold
vector 188 scenario.client4.tcp.conn-31 srtt:vector ETV
attr interpolationmode sample-hold
vector 189 scenario.client4.tcp.conn-31 rttvar:vector ETV
attr interpolationmode sample-hold
vector 190 scenario.client4.tcp.conn-31 rto:vector ETV
attr interpolationmode sample-hold
vector 191 scenario.client4.tcp.conn-31 cwnd:vector ETV
attr interpolationmode sample-hold
vector 192 scenario.client4.tcp.conn-31 ssthresh:vector ETV
attr interpolationmode sample-hold
vector 193 scenario.client4.tcp.conn-31 dupAcks:vector ETV
attr interpolationmode sample-hold
vector 194 scenario.client2.tcp.conn-33 tcpRcvQueueBytes:vector ETV
attr interpolationmode sample-hold
vector 195 scenario.client2.tcp.conn-33 rcvAdv:vector ETV
attr interpolationmode sample-hold
vector 196 scenario.client2.tcp.conn-33 rcvWnd:vector ETV
attr interpolationmode sample-hold
vector 197 scenario.client2.tcp.conn-33 sndAck:vector ETV
attr interpolationmode sample-hold
vector 198 scenario.client3.tcp.conn-3 rcvSeq:vector ETV
attr interpolationmode sample-hold
vector 199 scenario.client3.tcp.conn-3 rcvAck:vector ETV
attr interpolationmode sample-hold
vector 200 scenario.client3.tcp.conn-34 rcvAdv:vector ETV
attr interpolationmode sample-hold
vector 201 scenario.client3.tcp.conn-34 sndWnd:vector ETV
attr interpolationmode sample-hold
vector 202 scenario.client3.tcp.conn-34 tcpRcvQueueBytes:vector ETV
attr interpolationmode sample-hold
vector 203 scenario.client3.tcp.conn-34 rcvWnd:vector ETV
attr interpolationmode sample-hold
vector 204 scenario.client3.tcp.conn-34 sndAck:vector ETV
attr interpolationmode sample-hold
vector 205 scenario.client2.tcp.conn-33 rcvSeq:vector ETV
attr interpolationmode sample-hold
vector 206 scenario.client2.tcp.conn-33 rcvAck:vector ETV
attr interpolationmode sample-hold
vector 207 scenario.client2.tcp.conn-33 sndWnd:vector ETV
attr interpolationmode sample-hold
vector 208 scenario.client2.tcp.conn-33 unacked:vector ETV
attr interpolationmode sample-hold
vector 209 scenario.client3.tcp.conn-34 rcvSeq:vector ETV
attr interpolationmode sample-hold
vector 210 scenario.client3.tcp.conn-34 rcvAck:vector ETV
attr interpolationmode sample-hold
vector 211 scenario.client3.tcp.conn-34 unacked:vector ETV
attr interpolationmode sample-hold
vector 212 scenario.client3.tcp.conn-34 cwnd:vector ETV
attr interpolationmode sample-hold
vector 213 scenario.client3.tcp.conn-34 ssthresh:vector ETV
attr interpolationmode sample-hold
vector 214 scenario.client3.tcp.conn-34 dupAcks:vector ETV
attr interpolationmode sample-hold
vector 215 scenario.client2.tcp.conn-33 rtt:vector ETV
attr interpolationmode sample-hold
vector 216 scenario.client2.tcp.conn-33 srtt:vector ETV
attr interpolationmode sample-hold
vector 217 scenario.client2.tcp.conn-33 rttvar:vector ETV
attr interpolationmode sample-hold
vector 218 scenario.client2.tcp.conn-33 rto:vector ETV
attr interpolationmode sample-hold
vector 219 scenario.client2.tcp.conn-33 cwnd:vector ETV
attr interpolationmode sample-hold
vector 220 scenario.client2.tcp.conn-33 ssthresh:vector ETV
attr interpolationmode sample-hold
vector 221 scenario.client2.tcp.conn-33 dupAcks:vector ETV
attr interpolationmode sample-hold
vector 222 scenario.client1.tcp.conn-35 tcpRcvQueueBytes:vector ETV
attr interpolationmode sample-hold
vector 223 scenario.client1.tcp.conn-35 rcvAdv:vector ETV
attr interpolationmode sample-hold
vector 224 scenario.client1.tcp.conn-35 rcvWnd:vector ETV
attr interpolationmode sample-hold
vector 225 scenario.client1.tcp.conn-35 sndAck:vector ETV
attr interpolationmode sample-hold
vector 226 scenario.client1.ppp[1].ppp rcvdPkFromHl:vector(packetBytes) ETV
attr interpolationmode none
attr source packetReceivedFromUpper
attr title "packets received from higher layer, vector(packetBytes)"
vector 227 scenario.client1.ppp[1].ppp.queue packetPushed:vector(packetBytes) ETV
attr interpolationmode none
attr title "packet pushed, vector(packetBytes)"
vector 228 scenario.client1.ppp[1].ppp.queue queueLength:vector ETV
attr interpolationmode sample-hold
attr source "count(packetPushed) - count(packetPopped) - count(packetRemoved) - count(packetDropped)"
attr title "queue length, vector"
vector 229 scenario.client1.ppp[1].ppp.queue packetPopped:vector(packetBytes) ETV
attr interpolationmode none
attr title "packet popped, vector(packetBytes)"
vector 230 scenario.client1.ppp[1].ppp.queue queueingTime:vector ETV
attr interpolationmode none
attr source queueingTime(packetPopped)
attr title "queueing times, vector"
attr unit s
vector 231 scenario.client1.ppp[1].ppp txPk:vector(packetBytes) ETV
attr interpolationmode none
attr source packetSentToLower
attr title "packets transmitted, vector(packetBytes)"
vector 232 scenario.client2.ppp[1].ppp rxPkOk:vector(packetBytes) ETV
attr interpolationmode none
attr source rxPkOk
attr title "packets received OK, vector(packetBytes)"
vector 233 scenario.client2.ppp[1].ppp passedUpPk:vector(packetBytes) ETV
attr interpolationmode none
attr source packetSentToUpper
attr title "packets passed to higher layer, vector(packetBytes)"
vector 234 scenario.client2.tcp.conn-36 rcvAdv:vector ETV
attr interpolationmode sample-hold
vector 235 scenario.client2.tcp.conn-36 sndWnd:vector ETV
attr interpolationmode sample-hold
vector 236 scenario.client2.tcp.conn-36 tcpRcvQueueBytes:vector ETV
attr interpolationmode sample-hold
vector 237 scenario.client2.tcp.conn-36 rcvWnd:vector ETV
attr interpolationmode sample-hold
vector 238 scenario.client2.tcp.conn-36 sndAck:vector ETV
attr interpolationmode sample-hold
vector 239 scenario.client2.ppp[1].ppp rcvdPkFromHl:vector(packetBytes) ETV
attr interpolationmode none
attr source packetReceivedFromUpper
attr title "packets received from higher layer, vector(packetBytes)"
vector 240 scenario.client2.ppp[1].ppp.queue packetPushed:vector(packetBytes) ETV
attr interpolationmode none
attr title "packet pushed, vector(packetBytes)"
vector 241 scenario.client2.ppp[1].ppp.queue queueLength:vector ETV
attr interpolationmode sample-hold
attr source "count(packetPushed) - count(packetPopped) - count(packetRemoved) - count(packetDropped)"
attr title "queue length, vector"
vector 242 scenario.client2.ppp[1].ppp.queue packetPopped:vector(packetBytes) ETV
attr interpolationmode none
attr title "packet popped, vector(packetBytes)"
vector 243 scenario.client2.ppp[1].ppp.queue queueingTime:vector ETV
attr interpolationmode none
attr source queueingTime(packetPopped)
attr title "queueing times, vector"
attr unit s
vector 244 scenario.client2.ppp[1].ppp txPk:vector(packetBytes) ETV
attr interpolationmode none
attr source packetSentToLower
attr title "packets transmitted, vector(packetBytes)"
vector 245 scenario.client1.ppp[1].ppp rxPkOk:vector(packetBytes) ETV
attr interpolationmode none
attr source rxPkOk
attr title "packets received OK, vector(packetBytes)"
vector 246 scenario.client1.ppp[1].ppp passedUpPk:vector(packetBytes) ETV
attr interpolationmode none
attr source packetSentToUpper
attr title "packets passed to higher layer, vector(packetBytes)"
vector 247 scenario.client1.tcp.conn-35 rcvSeq:vector ETV
attr interpolationmode sample-hold
vector 248 scenario.client1.tcp.conn-35 rcvAck:vector ETV
attr interpolationmode sample-hold
vector 249 scenario.client1.tcp.conn-35 sndWnd:vector ETV
attr interpolationmode sample-hold
vector 250 scenario.client1.tcp.conn-35 unacked:vector ETV
attr interpolationmode sample-hold
vector 251 scenario.client2.tcp.conn-36 rcvSeq:vector ETV
attr interpolationmode sample-hold
vector 252 scenario.client2.tcp.conn-36 rcvAck:vector ETV
attr interpolationmode sample-hold
vector 253 scenario.client2.tcp.conn-36 unacked:vector ETV
attr interpolationmode sample-hold
vector 254 scenario.client2.tcp.conn-36 cwnd:vector ETV
attr interpolationmode sample-hold
vector 255 scenario.client2.tcp.conn-36 ssthresh:vector ETV
attr interpolationmode sample-hold
vector 256 scenario.client2.tcp.conn-36 dupAcks:vector ETV
attr interpolationmode sample-hold
vector 257 scenario.client1.tcp.conn-35 rtt:vector ETV
attr interpolationmode sample-hold
vector 258 scenario.client1.tcp.conn-35 srtt:vector ETV
attr interpolationmode sample-hold
vector 259 scenario.client1.tcp.conn-35 rttvar:vector ETV
attr interpolationmode sample-hold
vector 260 scenario.client1.tcp.conn-35 rto:vector ETV
attr interpolationmode sample-hold
vector 261 scenario.client1.tcp.conn-35 cwnd:vector ETV
attr interpolationmode sample-hold
vector 262 scenario.client1.tcp.conn-35 ssthresh:vector ETV
attr interpolationmode sample-hold
vector 263 scenario.client1.tcp.conn-35 dupAcks:vector ETV
attr interpolationmode sample-hold
vector 264 scenario.client4.tcp.conn-37 tcpRcvQueueBytes:vector ETV
attr interpolationmode sample-hold
vector 265 scenario.client4.tcp.conn-37 rcvAdv:vector ETV
attr interpolationmode sample-hold
vector 266 scenario.client4.tcp.conn-37 rcvWnd:vector ETV
attr interpolationmode sample-hold
vector 267 scenario.client4.tcp.conn-37 sndAck:vector ETV
attr interpolationmode sample-hold
vector 268 scenario.client4.ppp[1].ppp rcvdPkFromHl:vector(packetBytes) ETV
attr interpolationmode none
attr source packetReceivedFromUpper
attr title "packets received from higher layer, vector(packetBytes)"
vector 269 scenario.client4.ppp[1].ppp.queue packetPushed:vector(packetBytes) ETV
attr interpolationmode none
attr title "packet pushed, vector(packetBytes)"
vector 270 scenario.client4.ppp[1].ppp.queue queueLength:vector ETV
attr interpolationmode sample-hold
attr source "count(packetPushed) - count(packetPopped) - count(packetRemoved) - count(packetDropped)"
attr title "queue length, vector"
vector 271 scenario.client4.ppp[1].ppp.queue packetPopped:vector(packetBytes) ETV
attr interpolationmode none
attr title "packet popped, vector(packetBytes)"
vector 272 scenario.client4.ppp[1].ppp.queue queueingTime:vector ETV
attr interpolationmode none
attr source queueingTime(packetPopped)
attr title "queueing times, vector"
attr unit s
vector 273 scenario.client4.ppp[1].ppp txPk:vector(packetBytes) ETV
attr interpolationmode none
attr source packetSentToLower
attr title "packets transmitted, vector(packetBytes)"
vector 274 scenario.client1.ppp[3].ppp rxPkOk:vector(packetBytes) ETV
attr interpolationmode none
attr source rxPkOk
attr title "packets received OK, vector(packetBytes)"
vector 275 scenario.client1.ppp[3].ppp passedUpPk:vector(packetBytes) ETV
attr interpolationmode none
attr source packetSentToUpper
attr title "packets passed to higher layer, vector(packetBytes)"
vector 276 scenario.client1.tcp.conn-38 rcvAdv:vector ETV
attr interpolationmode sample-hold
vector 277 scenario.client1.tcp.conn-38 sndWnd:vector ETV
attr interpolationmode sample-hold
vector 278 scenario.client1.tcp.conn-38 tcpRcvQueueBytes:vector ETV
attr interpolationmode sample-hold
vector 279 scenario.client1.tcp.conn-38 rcvWnd:vector ETV
attr interpolationmode sample-hold
vector 280 scenario.client1.tcp.conn-38 sndAck:vector ETV
attr interpolationmode sample-hold
vector 281 scenario.client1.ppp[3].ppp rcvdPkFromHl:vector(packetBytes) ETV
attr interpolationmode none
attr source packetReceivedFromUpper
attr title "packets received from higher layer, vector(packetBytes)"
vector 282 scenario.client1.ppp[3].ppp.queue packetPushed:vector(packetBytes) ETV
attr interpolationmode none
attr title "packet pushed, vector(packetBytes)"
vector 283 scenario.client1.ppp[3].ppp.queue queueLength:vector ETV
attr interpolationmode sample-hold
attr source "count(packetPushed) - count(packetPopped) - count(packetRemoved) - count(packetDropped)"
attr title "queue length, vector"
vector 284 scenario.client1.ppp[3].ppp.queue packetPopped:vector(packetBytes) ETV
attr interpolationmode none
attr title "packet popped, vector(packetBytes)"
vector 285 scenario.client1.ppp[3].ppp.queue queueingTime:vector ETV
attr interpolationmode none
attr source queueingTime(packetPopped)
attr title "queueing times, vector"
attr unit s
vector 286 scenario.client1.ppp[3].ppp txPk:vector(packetBytes) ETV
attr interpolationmode none
attr source packetSentToLower
attr title "packets transmitted, vector(packetBytes)"
vector 287 scenario.client4.ppp[1].ppp rxPkOk:vector(packetBytes) ETV
attr interpolationmode none
attr source rxPkOk
attr title "packets received OK, vector(packetBytes)"
vector 288 scenario.client4.ppp[1].ppp passedUpPk:vector(packetBytes) ETV
attr interpolationmode none
attr source packetSentToUpper
attr title "packets passed to higher layer, vector(packetBytes)"
vector 289 scenario.client4.tcp.conn-37 rcvSeq:vector ETV
attr interpolationmode sample-hold
vector 290 scenario.client4.tcp.conn-37 rcvAck:vector ETV
attr interpolationmode sample-hold
vector 291 scenario.client4.tcp.conn-37 sndWnd:vector ETV
attr interpolationmode sample-hold
vector 292 scenario.client4.tcp.conn-37 unacked:vector ETV
attr interpolationmode sample-hold
vector 293 scenario.client1.tcp.conn-38 rcvSeq:vector ETV
attr interpolationmode sample-hold
vector 294 scenario.client1.tcp.conn-38 rcvAck:vector ETV
attr interpolationmode sample-hold
vector 295 scenario.client1.tcp.conn-38 unacked:vector ETV
attr interpolationmode sample-hold
vector 296 scenario.client1.tcp.conn-38 cwnd:vector ETV
attr interpolationmode sample-hold
vector 297 scenario.client1.tcp.conn-38 ssthresh:vector ETV
attr interpolationmode sample-hold
vector 298 scenario.client1.tcp.conn-38 dupAcks:vector ETV
attr interpolationmode sample-hold
vector 299 scenario.client4.tcp.conn-37 rtt:vector ETV
attr interpolationmode sample-hold
vector 300 scenario.client4.tcp.conn-37 srtt:vector ETV
attr interpolationmode sample-hold
vector 301 scenario.client4.tcp.conn-37 rttvar:vector ETV
attr interpolationmode sample-hold
vector 302 scenario.client4.tcp.conn-37 rto:vector ETV
attr interpolationmode sample-hold
vector 303 scenario.client4.tcp.conn-37 cwnd:vector ETV
attr interpolationmode sample-hold
vector 304 scenario.client4.tcp.conn-37 ssthresh:vector ETV
attr interpolationmode sample-hold
vector 305 scenario.client4.tcp.conn-37 dupAcks:vector ETV
attr interpolationmode sample-hold
vector 306 scenario.client2.tcp.conn-39 tcpRcvQueueBytes:vector ETV
attr interpolationmode sample-hold
vector 307 scenario.client2.tcp.conn-39 rcvAdv:vector ETV
attr interpolationmode sample-hold
vector 308 scenario.client2.tcp.conn-39 rcvWnd:vector ETV
attr interpolationmode sample-hold
vector 309 scenario.client2.tcp.conn-39 sndAck:vector ETV
attr interpolationmode sample-hold
vector 310 scenario.client1.tcp.conn-40 rcvAdv:vector ETV
attr interpolationmode sample-hold
vector 311 scenario.client1.tcp.conn-40 sndWnd:vector ETV
attr interpolationmode sample-hold
vector 312 scenario.client1.tcp.conn-40 tcpRcvQueueBytes:vector ETV
attr interpolationmode sample-hold
vector 313 scenario.client1.tcp.conn-40 rcvWnd:vector ETV
attr interpolationmode sample-hold
vector 314 scenario.client1.tcp.conn-40 sndAck:vector ETV
attr interpolationmode sample-hold
vector 315 scenario.client2.tcp.conn-39 rcvSeq:vector ETV
attr interpolationmode sample-hold
vector 316 scenario.client2.tcp.conn-39 rcvAck:vector ETV
attr interpolationmode sample-hold
vector 317 scenario.client2.tcp.conn-39 sndWnd:vector ETV
attr interpolationmode sample-hold
vector 318 scenario.client2.tcp.conn-39 unacked:vector ETV
attr interpolationmode sample-hold
vector 319 scenario.client1.tcp.conn-40 rcvSeq:vector ETV
attr interpolationmode sample-hold
vector 320 scenario.client1.tcp.conn-40 rcvAck:vector ETV
attr interpolationmode sample-hold
vector 321 scenario.client1.tcp.conn-40 unacked:vector ETV
attr interpolationmode sample-hold
vector 322 scenario.client1.tcp.conn-40 cwnd:vector ETV
attr interpolationmode sample-hold
vector 323 scenario.client1.tcp.conn-40 ssthresh:vector ETV
attr interpolationmode sample-hold
vector 324 scenario.client1.tcp.conn-40 dupAcks:vector ETV
attr interpolationmode sample-hold
vector 325 scenario.client2.tcp.conn-39 rtt:vector ETV
attr interpolationmode sample-hold
vector 326 scenario.client2.tcp.conn-39 srtt:vector ETV
attr interpolationmode sample-hold
vector 327 scenario.client2.tcp.conn-39 rttvar:vector ETV
attr interpolationmode sample-hold
vector 328 scenario.client2.tcp.conn-39 rto:vector ETV
attr interpolationmode sample-hold
vector 329 scenario.client2.tcp.conn-39 cwnd:vector ETV
attr interpolationmode sample-hold
vector 330 scenario.client2.tcp.conn-39 ssthresh:vector ETV
attr interpolationmode sample-hold
vector 331 scenario.client2.tcp.conn-39 dupAcks:vector ETV
attr interpolationmode sample-hold
vector 332 scenario.client2.tcp.conn-41 tcpRcvQueueBytes:vector ETV
attr interpolationmode sample-hold
vector 333 scenario.client2.tcp.conn-41 rcvAdv:vector ETV
attr interpolationmode sample-hold
vector 334 scenario.client2.tcp.conn-41 rcvWnd:vector ETV
attr interpolationmode sample-hold
vector 335 scenario.client2.tcp.conn-41 sndAck:vector ETV
attr interpolationmode sample-hold
vector 336 scenario.client2.ppp[0].ppp rcvdPkFromHl:vector(packetBytes) ETV
attr interpolationmode none
attr source packetReceivedFromUpper
attr title "packets received from higher layer, vector(packetBytes)"
vector 337 scenario.client2.ppp[0].ppp.queue packetPushed:vector(packetBytes) ETV
attr interpolationmode none
attr title "packet pushed, vector(packetBytes)"
vector 338 scenario.client2.ppp[0].ppp.queue queueLength:vector ETV
attr interpolationmode sample-hold
attr source "count(packetPushed) - count(packetPopped) - count(packetRemoved) - count(packetDropped)"
attr title "queue length, vector"
vector 339 scenario.client2.ppp[0].ppp.queue packetPopped:vector(packetBytes) ETV
attr interpolationmode none
attr title "packet popped, vector(packetBytes)"
vector 340 scenario.client2.ppp[0].ppp.queue queueingTime:vector ETV
attr interpolationmode none
attr source queueingTime(packetPopped)
attr title "queueing times, vector"
attr unit s
vector 341 scenario.client2.ppp[0].ppp txPk:vector(packetBytes) ETV
attr interpolationmode none
attr source packetSentToLower
attr title "packets transmitted, vector(packetBytes)"
vector 342 scenario.client0.ppp[1].ppp rxPkOk:vector(packetBytes) ETV
attr interpolationmode none
attr source rxPkOk
attr title "packets received OK, vector(packetBytes)"
vector 343 scenario.client0.ppp[1].ppp passedUpPk:vector(packetBytes) ETV
attr interpolationmode none
attr source packetSentToUpper
attr title "packets passed to higher layer, vector(packetBytes)"
vector 344 scenario.client0.tcp.conn-42 rcvAdv:vector ETV
attr interpolationmode sample-hold
vector 345 scenario.client0.tcp.conn-42 sndWnd:vector ETV
attr interpolationmode sample-hold
vector 346 scenario.client0.tcp.conn-42 tcpRcvQueueBytes:vector ETV
attr interpolationmode sample-hold
vector 347 scenario.client0.tcp.conn-42 rcvWnd:vector ETV
attr interpolationmode sample-hold
vector 348 scenario.client0.tcp.conn-42 sndAck:vector ETV
attr interpolationmode sample-hold
vector 349 scenario.client0.ppp[1].ppp rcvdPkFromHl:vector(packetBytes) ETV
attr interpolationmode none
attr source packetReceivedFromUpper
attr title "packets received from higher layer, vector(packetBytes)"
vector 350 scenario.client0.ppp[1].ppp.queue packetPushed:vector(packetBytes) ETV
attr interpolationmode none
attr title "packet pushed, vector(packetBytes)"
vector 351 scenario.client0.ppp[1].ppp.queue queueLength:vector ETV
attr interpolationmode sample-hold
attr source "count(packetPushed) - count(packetPopped) - count(packetRemoved) - count(packetDropped)"
attr title "queue length, vector"
vector 352 scenario.client0.ppp[1].ppp.queue packetPopped:vector(packetBytes) ETV
attr interpolationmode none
attr title "packet popped, vector(packetBytes)"
vector 353 scenario.client0.ppp[1].ppp.queue queueingTime:vector ETV
attr interpolationmode none
attr source queueingTime(packetPopped)
attr title "queueing times, vector"
attr unit s
vector 354 scenario.client0.ppp[1].ppp txPk:vector(packetBytes) ETV
attr interpolationmode none
attr source packetSentToLower
attr title "packets transmitted, vector(packetBytes)"
vector 355 scenario.client2.ppp[0].ppp rxPkOk:vector(packetBytes) ETV
attr interpolationmode none
attr source rxPkOk
attr title "packets received OK, vector(packetBytes)"
vector 356 scenario.client2.ppp[0].ppp passedUpPk:vector(packetBytes) ETV
attr interpolationmode none
attr source packetSentToUpper
attr title "packets passed to higher layer, vector(packetBytes)"
vector 357 scenario.client2.tcp.conn-41 rcvSeq:vector ETV
attr interpolationmode sample-hold
vector 358 scenario.client2.tcp.conn-41 rcvAck:vector ETV
attr interpolationmode sample-hold
vector 359 scenario.client2.tcp.conn-41 sndWnd:vector ETV
attr interpolationmode sample-hold
vector 360 scenario.client2.tcp.conn-41 unacked:vector ETV
attr interpolationmode sample-hold
vector 361 scenario.client0.tcp.conn-42 rcvSeq:vector ETV
attr interpolationmode sample-hold
vector 362 scenario.client0.tcp.conn-42 rcvAck:vector ETV
attr interpolationmode sample-hold
vector 363 scenario.client0.tcp.conn-42 unacked:vector ETV
attr interpolationmode sample-hold
vector 364 scenario.client0.tcp.conn-42 cwnd:vector ETV
attr interpolationmode sample-hold
vector 365 scenario.client0.tcp.conn-42 ssthresh:vector ETV
attr interpolationmode sample-hold
vector 366 scenario.client0.tcp.conn-42 dupAcks:vector ETV
attr interpolationmode sample-hold
vector 367 scenario.client2.tcp.conn-41 rtt:vector ETV
attr interpolationmode sample-hold
vector 368 scenario.client2.tcp.conn-41 srtt:vector ETV
attr interpolationmode sample-hold
vector 369 scenario.client2.tcp.conn-41 rttvar:vector ETV
attr interpolationmode sample-hold
vector 370 scenario.client2.tcp.conn-41 rto:vector ETV
attr interpolationmode sample-hold
vector 371 scenario.client2.tcp.conn-41 cwnd:vector ETV
attr interpolationmode sample-hold
vector 372 scenario.client2.tcp.conn-41 ssthresh:vector ETV
attr interpolationmode sample-hold
vector 373 scenario.client2.tcp.conn-41 dupAcks:vector ETV
attr interpolationmode sample-hold
vector 374 scenario.client3.tcp.conn-43 tcpRcvQueueBytes:vector ETV
attr interpolationmode sample-hold
vector 375 scenario.client3.tcp.conn-43 rcvAdv:vector ETV
attr interpolationmode sample-hold
vector 376 scenario.client3.tcp.conn-43 rcvWnd:vector ETV
attr interpolationmode sample-hold
vector 377 scenario.client3.tcp.conn-43 sndAck:vector ETV
attr interpolationmode sample-hold
vector 378 scenario.client3.ppp[0].ppp rcvdPkFromHl:vector(packetBytes) ETV
attr interpolationmode none
attr source packetReceivedFromUpper
attr title "packets received from higher layer, vector(packetBytes)"
vector 379 scenario.client3.ppp[0].ppp.queue packetPushed:vector(packetBytes) ETV
attr interpolationmode none
attr title "packet pushed, vector(packetBytes)"
vector 380 scenario.client3.ppp[0].ppp.queue queueLength:vector ETV
attr interpolationmode sample-hold
attr source "count(packetPushed) - count(packetPopped) - count(packetRemoved) - count(packetDropped)"
attr title "queue length, vector"
vector 381 scenario.client3.ppp[0].ppp.queue packetPopped:vector(packetBytes) ETV
attr interpolationmode none
attr title "packet popped, vector(packetBytes)"
vector 382 scenario.client3.ppp[0].ppp.queue queueingTime:vector ETV
attr interpolationmode none
attr source queueingTime(packetPopped)
attr title "queueing times, vector"
attr unit s
vector 383 scenario.client3.ppp[0].ppp txPk:vector(packetBytes) ETV
attr interpolationmode none
attr source packetSentToLower
attr title "packets transmitted, vector(packetBytes)"
vector 384 scenario.client0.ppp[2].ppp rxPkOk:vector(packetBytes) ETV
attr interpolationmode none
attr source rxPkOk
attr title "packets received OK, vector(packetBytes)"
vector 385 scenario.client0.ppp[2].ppp passedUpPk:vector(packetBytes) ETV
attr interpolationmode none
attr source packetSentToUpper
attr title "packets passed to higher layer, vector(packetBytes)"
vector 386 scenario.client0.tcp.conn-44 rcvAdv:vector ETV
attr interpolationmode sample-hold
vector 387 scenario.client0.tcp.conn-44 sndWnd:vector ETV
attr interpolationmode sample-hold
vector 388 scenario.client0.tcp.conn-44 tcpRcvQueueBytes:vector ETV
attr interpolationmode sample-hold
vector 389 scenario.client0.tcp.conn-44 rcvWnd:vector ETV
attr interpolationmode sample-hold
vector 390 scenario.client0.tcp.conn-44 sndAck:vector ETV
attr interpolationmode sample-hold
vector 391 scenario.client0.ppp[2].ppp rcvdPkFromHl:vector(packetBytes) ETV
attr interpolationmode none
attr source packetReceivedFromUpper
attr title "packets received from higher layer, vector(packetBytes)"
vector 392 scenario.client0.ppp[2].ppp.queue packetPushed:vector(packetBytes) ETV
attr interpolationmode none
attr title "packet pushed, vector(packetBytes)"
vector 393 scenario.client0.ppp[2].ppp.queue queueLength:vector ETV
attr interpolationmode sample-hold
attr source "count(packetPushed) - count(packetPopped) - count(packetRemoved) - count(packetDropped)"
attr title "queue length, vector"
vector 394 scenario.client0.ppp[2].ppp.queue packetPopped:vector(packetBytes) ETV
attr interpolationmode none
attr title "packet popped, vector(packetBytes)"
vector 395 scenario.client0.ppp[2].ppp.queue queueingTime:vector ETV
attr interpolationmode none
attr source queueingTime(packetPopped)
attr title "queueing times, vector"
attr unit s
vector 396 scenario.client0.ppp[2].ppp txPk:vector(packetBytes) ETV
attr interpolationmode none
attr source packetSentToLower
attr title "packets transmitted, vector(packetBytes)"
vector 397 scenario.client3.ppp[0].ppp rxPkOk:vector(packetBytes) ETV
attr interpolationmode none
attr source rxPkOk
attr title "packets received OK, vector(packetBytes)"
vector 398 scenario.client3.ppp[0].ppp passedUpPk:vector(packetBytes) ETV
attr interpolationmode none
attr source packetSentToUpper
attr title "packets passed to higher layer, vector(packetBytes)"
vector 399 scenario.client3.tcp.conn-43 rcvSeq:vector ETV
attr interpolationmode sample-hold
vector 400 scenario.client3.tcp.conn-43 rcvAck:vector ETV
attr interpolationmode sample-hold
vector 401 scenario.client3.tcp.conn-43 sndWnd:vector ETV
attr interpolationmode sample-hold
vector 402 scenario.client3.tcp.conn-43 unacked:vector ETV
attr interpolationmode sample-hold
vector 403 scenario.client0.tcp.conn-44 rcvSeq:vector ETV
attr interpolationmode sample-hold
vector 404 scenario.client0.tcp.conn-44 rcvAck:vector ETV
attr interpolationmode sample-hold
vector 405 scenario.client0.tcp.conn-44 unacked:vector ETV
attr interpolationmode sample-hold
vector 406 scenario.client0.tcp.conn-44 cwnd:vector ETV
attr interpolationmode sample-hold
vector 407 scenario.client0.tcp.conn-44 ssthresh:vector ETV
attr interpolationmode sample-hold
vector 408 scenario.client0.tcp.conn-44 dupAcks:vector ETV
attr interpolationmode sample-hold
vector 409 scenario.client3.tcp.conn-43 rtt:vector ETV
attr interpolationmode sample-hold
vector 410 scenario.client3.tcp.conn-43 srtt:vector ETV
attr interpolationmode sample-hold
vector 411 scenario.client3.tcp.conn-43 rttvar:vector ETV
attr interpolationmode sample-hold
vector 412 scenario.client3.tcp.conn-43 rto:vector ETV
attr interpolationmode sample-hold
vector 413 scenario.client3.tcp.conn-43 cwnd:vector ETV
attr interpolationmode sample-hold
vector 414 scenario.client3.tcp.conn-43 ssthresh:vector ETV
attr interpolationmode sample-hold
vector 415 scenario.client3.tcp.conn-43 dupAcks:vector ETV
attr interpolationmode sample-hold
vector 416 scenario.client1.tcp.conn-45 tcpRcvQueueBytes:vector ETV
attr interpolationmode sample-hold
vector 417 scenario.client1.tcp.conn-45 rcvAdv:vector ETV
attr interpolationmode sample-hold
vector 418 scenario.client1.tcp.conn-45 rcvWnd:vector ETV
attr interpolationmode sample-hold
vector 419 scenario.client1.tcp.conn-45 sndAck:vector ETV
attr interpolationmode sample-hold
vector 420 scenario.client4.tcp.conn-4 rcvSeq:vector ETV
attr interpolationmode sample-hold
vector 421 scenario.client4.tcp.conn-4 rcvAck:vector ETV
attr interpolationmode sample-hold
vector 422 scenario.client4.tcp.conn-46 rcvAdv:vector ETV
attr interpolationmode sample-hold
vector 423 scenario.client4.tcp.conn-46 sndWnd:vector ETV
attr interpolationmode sample-hold
vector 424 scenario.client4.tcp.conn-46 tcpRcvQueueBytes:vector ETV
attr interpolationmode sample-hold
vector 425 scenario.client4.tcp.conn-46 rcvWnd:vector ETV
attr interpolationmode sample-hold
vector 426 scenario.client4.tcp.conn-46 sndAck:vector ETV
attr interpolationmode sample-hold
vector 427 scenario.client1.tcp.conn-45 rcvSeq:vector ETV
attr interpolationmode sample-hold
vector 428 scenario.client1.tcp.conn-45 rcvAck:vector ETV
attr interpolationmode sample-hold
vector 429 scenario.client1.tcp.conn-45 sndWnd:vector ETV
attr interpolationmode sample-hold
vector 430 scenario.client1.tcp.conn-45 unacked:vector ETV
attr interpolationmode sample-hold
vector 431 scenario.client4.tcp.conn-46 rcvSeq:vector ETV
attr interpolationmode sample-hold
vector 432 scenario.client4.tcp.conn-46 rcvAck:vector ETV
attr interpolationmode sample-hold
vector 433 scenario.client4.tcp.conn-46 unacked:vector ETV
attr interpolationmode sample-hold
vector 434 scenario.client4.tcp.conn-46 cwnd:vector ETV
attr interpolationmode sample-hold
vector 435 scenario.client4.tcp.conn-46 ssthresh:vector ETV
attr interpolationmode sample-hold
vector 436 scenario.client4.tcp.conn-46 dupAcks:vector ETV
attr interpolationmode sample-hold
vector 437 scenario.client1.tcp.conn-45 rtt:vector ETV
attr interpolationmode sample-hold
vector 438 scenario.client1.tcp.conn-45 srtt:vector ETV
attr interpolationmode sample-hold
vector 439 scenario.client1.tcp.conn-45 rttvar:vector ETV
attr interpolationmode sample-hold
vector 440 scenario.client1.tcp.conn-45 rto:vector ETV
attr interpolationmode sample-hold
vector 441 scenario.client1.tcp.conn-45 cwnd:vector ETV
attr interpolationmode sample-hold
vector 442 scenario.client1.tcp.conn-45 ssthresh:vector ETV
attr interpolationmode sample-hold
vector 443 scenario.client1.tcp.conn-45 dupAcks:vector ETV
attr interpolationmode sample-hold
vector 444 scenario.client4.tcp.conn-47 tcpRcvQueueBytes:vector ETV
attr interpolationmode sample-hold
vector 445 scenario.client4.tcp.conn-47 rcvAdv:vector ETV
attr interpolationmode sample-hold
vector 446 scenario.client4.tcp.conn-47 rcvWnd:vector ETV
attr interpolationmode sample-hold
vector 447 scenario.client4.tcp.conn-47 sndAck:vector ETV
attr interpolationmode sample-hold
vector 448 scenario.client4.ppp[0].ppp rcvdPkFromHl:vector(packetBytes) ETV
attr interpolationmode none
attr source packetReceivedFromUpper
attr title "packets received from higher layer, vector(packetBytes)"
vector 449 scenario.client4.ppp[0].ppp.queue packetPushed:vector(packetBytes) ETV
attr interpolationmode none
attr title "packet pushed, vector(packetBytes)"
vector 450 scenario.client4.ppp[0].ppp.queue queueLength:vector ETV
attr interpolationmode sample-hold
attr source "count(packetPushed) - count(packetPopped) - count(packetRemoved) - count(packetDropped)"
attr title "queue length, vector"
vector 451 scenario.client4.ppp[0].ppp.queue packetPopped:vector(packetBytes) ETV
attr interpolationmode none
attr title "packet popped, vector(packetBytes)"
vector 452 scenario.client4.ppp[0].ppp.queue queueingTime:vector ETV
attr interpolationmode none
attr source queueingTime(packetPopped)
attr title "queueing times, vector"
attr unit s
vector 453 scenario.client4.ppp[0].ppp txPk:vector(packetBytes) ETV
attr interpolationmode none
attr source packetSentToLower
attr title "packets transmitted, vector(packetBytes)"
vector 454 scenario.client0.ppp[3].ppp rxPkOk:vector(packetBytes) ETV
attr interpolationmode none
attr source rxPkOk
attr title "packets received OK, vector(packetBytes)"
vector 455 scenario.client0.ppp[3].ppp passedUpPk:vector(packetBytes) ETV
attr interpolationmode none
attr source packetSentToUpper
attr title "packets passed to higher layer, vector(packetBytes)"
vector 456 scenario.client0.tcp.conn-48 rcvAdv:vector ETV
attr interpolationmode sample-hold
vector 457 scenario.client0.tcp.conn-48 sndWnd:vector ETV
attr interpolationmode sample-hold
vector 458 scenario.client0.tcp.conn-48 tcpRcvQueueBytes:vector ETV
attr interpolationmode sample-hold
vector 459 scenario.client0.tcp.conn-48 rcvWnd:vector ETV
attr interpolationmode sample-hold
vector 460 scenario.client0.tcp.conn-48 sndAck:vector ETV
attr interpolationmode sample-hold
vector 461 scenario.client0.ppp[3].ppp rcvdPkFromHl:vector(packetBytes) ETV
attr interpolationmode none
attr source packetReceivedFromUpper
attr title "packets received from higher layer, vector(packetBytes)"
vector 462 scenario.client0.ppp[3].ppp.queue packetPushed:vector(packetBytes) ETV
attr interpolationmode none
attr title "packet pushed, vector(packetBytes)"
vector 463 scenario.client0.ppp[3].ppp.queue queueLength:vector ETV
attr interpolationmode sample-hold
attr source "count(packetPushed) - count(packetPopped) - count(packetRemoved) - count(packetDropped)"
attr title "queue length, vector"
vector 464 scenario.client0.ppp[3].ppp.queue packetPopped:vector(packetBytes) ETV
attr interpolationmode none
attr title "packet popped, vector(packetBytes)"
vector 465 scenario.client0.ppp[3].ppp.queue queueingTime:vector ETV
attr interpolationmode none
attr source queueingTime(packetPopped)
attr title "queueing times, vector"
attr unit s
vector 466 scenario.client0.ppp[3].ppp txPk:vector(packetBytes) ETV
attr interpolationmode none
attr source packetSentToLower
attr title "packets transmitted, vector(packetBytes)"
vector 467 scenario.client4.ppp[0].ppp rxPkOk:vector(packetBytes) ETV
attr interpolationmode none
attr source rxPkOk
attr title "packets received OK, vector(packetBytes)"
vector 468 scenario.client4.ppp[0].ppp passedUpPk:vector(packetBytes) ETV
attr interpolationmode none
attr source packetSentToUpper
attr title "packets passed to higher layer, vector(packetBytes)"
vector 469 scenario.client4.tcp.conn-47 rcvSeq:vector ETV
attr interpolationmode sample-hold
vector 470 scenario.client4.tcp.conn-47 rcvAck:vector ETV
attr interpolationmode sample-hold
vector 471 scenario.client4.tcp.conn-47 sndWnd:vector ETV
attr interpolationmode sample-hold
vector 472 scenario.client4.tcp.conn-47 unacked:vector ETV
attr interpolationmode sample-hold
vector 473 scenario.client0.tcp.conn-48 rcvSeq:vector ETV
attr interpolationmode sample-hold
vector 474 scenario.client0.tcp.conn-48 rcvAck:vector ETV
attr interpolationmode sample-hold
vector 475 scenario.client0.tcp.conn-48 unacked:vector ETV
attr interpolationmode sample-hold
vector 476 scenario.client0.tcp.conn-48 cwnd:vector ETV
attr interpolationmode sample-hold
vector 477 scenario.client0.tcp.conn-48 ssthresh:vector ETV
attr interpolationmode sample-hold
vector 478 scenario.client0.tcp.conn-48 dupAcks:vector ETV
attr interpolationmode sample-hold
vector 479 scenario.client4.tcp.conn-47 rtt:vector ETV
attr interpolationmode sample-hold
vector 480 scenario.client4.tcp.conn-47 srtt:vector ETV
attr interpolationmode sample-hold
vector 481 scenario.client4.tcp.conn-47 rttvar:vector ETV
attr interpolationmode sample-hold
vector 482 scenario.client4.tcp.conn-47 rto:vector ETV
attr interpolationmode sample-hold
vector 483 scenario.client4.tcp.conn-47 cwnd:vector ETV
attr interpolationmode sample-hold
vector 484 scenario.client4.tcp.conn-47 ssthresh:vector ETV
attr interpolationmode sample-hold
vector 485 scenario.client4.tcp.conn-47 dupAcks:vector ETV
attr interpolationmode sample-hold
vector 486 scenario.client0.tcp.conn-49 tcpRcvQueueBytes:vector ETV
attr interpolationmode sample-hold
vector 487 scenario.client0.tcp.conn-49 rcvAdv:vector ETV
attr interpolationmode sample-hold
vector 488 scenario.client0.tcp.conn-49 rcvWnd:vector ETV
attr interpolationmode sample-hold
vector 489 scenario.client0.tcp.conn-49 sndAck:vector ETV
attr interpolationmode sample-hold
vector 490 scenario.client2.tcp.conn-50 rcvAdv:vector ETV
attr interpolationmode sample-hold
vector 491 scenario.client2.tcp.conn-50 sndWnd:vector ETV
attr interpolationmode sample-hold
vector 492 scenario.client2.tcp.conn-50 tcpRcvQueueBytes:vector ETV
attr interpolationmode sample-hold
vector 493 scenario.client2.tcp.conn-50 rcvWnd:vector ETV
attr interpolationmode sample-hold
vector 494 scenario.client2.tcp.conn-50 sndAck:vector ETV
attr interpolationmode sample-hold
vector 495 scenario.client0.tcp.conn-49 rcvSeq:vector ETV
attr interpolationmode sample-hold
vector 496 scenario.client0.tcp.conn-49 rcvAck:vector ETV
attr interpolationmode sample-hold
vector 497 scenario.client0.tcp.conn-49 sndWnd:vector ETV
attr interpolationmode sample-hold
vector 498 scenario.client0.tcp.conn-49 unacked:vector ETV
attr interpolationmode sample-hold
vector 499 scenario.client2.tcp.conn-50 rcvSeq:vector ETV
attr interpolationmode sample-hold
vector 500 scenario.client2.tcp.conn-50 rcvAck:vector ETV
attr interpolationmode sample-hold
vector 501 scenario.client2.tcp.conn-50 unacked:vector ETV
attr interpolationmode sample-hold
vector 502 scenario.client2.tcp.conn-50 cwnd:vector ETV
attr interpolationmode sample-hold
vector 503 scenario.client2.tcp.conn-50 ssthresh:vector ETV
attr interpolationmode sample-hold
vector 504 scenario.client2.tcp.conn-50 dupAcks:vector ETV
attr interpolationmode sample-hold
vector 505 scenario.client0.tcp.conn-49 rtt:vector ETV
attr interpolationmode sample-hold
vector 506 scenario.client0.tcp.conn-49 srtt:vector ETV
attr interpolationmode sample-hold
vector 507 scenario.client0.tcp.conn-49 rttvar:vector ETV
attr interpolationmode sample-hold
vector 508 scenario.client0.tcp.conn-49 rto:vector ETV
attr interpolationmode sample-hold
vector 509 scenario.client0.tcp.conn-49 cwnd:vector ETV
attr interpolationmode sample-hold
vector 510 scenario.client0.tcp.conn-49 ssthresh:vector ETV
attr interpolationmode sample-hold
vector 511 scenario.client0.tcp.conn-49 dupAcks:vector ETV
attr interpolationmode sample-hold
vector 512 scenario.client1.tcp.conn-51 tcpRcvQueueBytes:vector ETV
attr interpolationmode sample-hold
vector 513 scenario.client1.tcp.conn-51 rcvAdv:vector ETV
attr interpolationmode sample-hold
vector 514 scenario.client1.tcp.conn-51 rcvWnd:vector ETV
attr interpolationmode sample-hold
vector 515 scenario.client1.tcp.conn-51 sndAck:vector ETV
attr interpolationmode sample-hold
vector 516 scenario.client3.tcp.conn-52 rcvAdv:vector ETV
attr interpolationmode sample-hold
vector 517 scenario.client3.tcp.conn-52 sndWnd:vector ETV
attr interpolationmode sample-hold
vector 518 scenario.client3.tcp.conn-52 tcpRcvQueueBytes:vector ETV
attr interpolationmode sample-hold
vector 519 scenario.client3.tcp.conn-52 rcvWnd:vector ETV
attr interpolationmode sample-hold
vector 520 scenario.client3.tcp.conn-52 sndAck:vector ETV
attr interpolationmode sample-hold
vector 521 scenario.client1.tcp.conn-51 rcvSeq:vector ETV
attr interpolationmode sample-hold
vector 522 scenario.client1.tcp.conn-51 rcvAck:vector ETV
attr interpolationmode sample-hold
vector 523 scenario.client1.tcp.conn-51 sndWnd:vector ETV
attr interpolationmode sample-hold
vector 524 scenario.client1.tcp.conn-51 unacked:vector ETV
attr interpolationmode sample-hold
vector 525 scenario.client3.tcp.conn-52 rcvSeq:vector ETV
attr interpolationmode sample-hold
vector 526 scenario.client3.tcp.conn-52 rcvAck:vector ETV
attr interpolationmode sample-hold
vector 527 scenario.client3.tcp.conn-52 unacked:vector ETV
attr interpolationmode sample-hold
vector 528 scenario.client3.tcp.conn-52 cwnd:vector ETV
attr interpolationmode sample-hold
vector 529 scenario.client3.tcp.conn-52 ssthresh:vector ETV
attr interpolationmode sample-hold
vector 530 scenario.client3.tcp.conn-52 dupAcks:vector ETV
attr interpolationmode sample-hold
vector 531 scenario.client1.tcp.conn-51 rtt:vector ETV
attr interpolationmode sample-hold
vector 532 scenario.client1.tcp.conn-51 srtt:vector ETV
attr interpolationmode sample-hold
vector 533 scenario.client1.tcp.conn-51 rttvar:vector ETV
attr interpolationmode sample-hold
vector 534 scenario.client1.tcp.conn-51 rto:vector ETV
attr interpolationmode sample-hold
vector 535 scenario.client1.tcp.conn-51 cwnd:vector ETV
attr interpolationmode sample-hold
vector 536 scenario.client1.tcp.conn-51 ssthresh:vector ETV
attr interpolationmode sample-hold
vector 537 scenario.client1.tcp.conn-51 dupAcks:vector ETV
attr interpolationmode sample-hold
vector 538 scenario.client0.tcp.conn-53 tcpRcvQueueBytes:vector ETV
attr interpolationmode sample-hold
vector 539 scenario.client0.tcp.conn-53 rcvAdv:vector ETV
attr interpolationmode sample-hold
vector 540 scenario.client0.tcp.conn-53 rcvWnd:vector ETV
attr interpolationmode sample-hold
vector 541 scenario.client0.tcp.conn-53 sndAck:vector ETV
attr interpolationmode sample-hold
vector 542 scenario.client1.tcp.conn-54 rcvAdv:vector ETV
attr interpolationmode sample-hold
vector 543 scenario.client1.tcp.conn-54 sndWnd:vector ETV
attr interpolationmode sample-hold
vector 544 scenario.client1.tcp.conn-54 tcpRcvQueueBytes:vector ETV
attr interpolationmode sample-hold
vector 545 scenario.client1.tcp.conn-54 rcvWnd:vector ETV
attr interpolationmode sample-hold
vector 546 scenario.client1.tcp.conn-54 sndAck:vector ETV
attr interpolationmode sample-hold
vector 547 scenario.client0.tcp.conn-53 rcvSeq:vector ETV
attr interpolationmode sample-hold
vector 548 scenario.client0.tcp.conn-53 rcvAck:vector ETV
attr interpolationmode sample-hold
vector 549 scenario.client0.tcp.conn-53 sndWnd:vector ETV
attr interpolationmode sample-hold
vector 550 scenario.client0.tcp.conn-53 unacked:vector ETV
attr interpolationmode sample-hold
vector 551 scenario.client1.tcp.conn-54 rcvSeq:vector ETV
attr interpolationmode sample-hold
vector 552 scenario.client1.tcp.conn-54 rcvAck:vector ETV
attr interpolationmode sample-hold
vector 553 scenario.client1.tcp.conn-54 unacked:vector ETV
attr interpolationmode sample-hold
vector 554 scenario.client1.tcp.conn-54 cwnd:vector ETV
attr interpolationmode sample-hold
vector 555 scenario.client1.tcp.conn-54 ssthresh:vector ETV
attr interpolationmode sample-hold
vector 556 scenario.client1.tcp.conn-54 dupAcks:vector ETV
attr interpolationmode sample-hold
vector 557 scenario.client0.tcp.conn-53 rtt:vector ETV
attr interpolationmode sample-hold
vector 558 scenario.client0.tcp.conn-53 srtt:vector ETV
attr interpolationmode sample-hold
vector 559 scenario.client0.tcp.conn-53 rttvar:vector ETV
attr interpolationmode sample-hold
vector 560 scenario.client0.tcp.conn-53 rto:vector ETV
attr interpolationmode sample-hold
vector 561 scenario.client0.tcp.conn-53 cwnd:vector ETV
attr interpolationmode sample-hold
vector 562 scenario.client0.tcp.conn-53 ssthresh:vector ETV
attr interpolationmode sample-hold
vector 563 scenario.client0.tcp.conn-53 dupAcks:vector ETV
attr interpolationmode sample-hold
vector 564 scenario.client2.tcp.conn-55 tcpRcvQueueBytes:vector ETV
attr interpolationmode sample-hold
vector 565 scenario.client2.tcp.conn-55 rcvAdv:vector ETV
attr interpolationmode sample-hold
vector 566 scenario.client2.tcp.conn-55 rcvWnd:vector ETV
attr interpolationmode sample-hold
vector 567 scenario.client2.tcp.conn-55 sndAck:vector ETV
attr interpolationmode sample-hold
vector 568 scenario.client4.tcp.conn-56 rcvAdv:vector ETV
attr interpolationmode sample-hold
vector 569 scenario.client4.tcp.conn-56 sndWnd:vector ETV
attr interpolationmode sample-hold
vector 570 scenario.client4.tcp.conn-56 tcpRcvQueueBytes:vector ETV
attr interpolationmode sample-hold
vector 571 scenario.client4.tcp.conn-56 rcvWnd:vector ETV
attr interpolationmode sample-hold
vector 572 scenario.client4.tcp.conn-56 sndAck:vector ETV
attr interpolationmode sample-hold
vector 573 scenario.client2.tcp.conn-55 rcvSeq:vector ETV
attr interpolationmode sample-hold
vector 574 scenario.client2.tcp.conn-55 rcvAck:vector ETV
attr interpolationmode sample-hold
vector 575 scenario.client2.tcp.conn-55 sndWnd:vector ETV
attr interpolationmode sample-hold
vector 576 scenario.client2.tcp.conn-55 unacked:vector ETV
attr interpolationmode sample-hold
vector 577 scenario.client4.tcp.conn-56 rcvSeq:vector ETV
attr interpolationmode sample-hold
vector 578 scenario.client4.tcp.conn-56 rcvAck:vector ETV
attr interpolationmode sample-hold
vector 579 scenario.client4.tcp.conn-56 unacked:vector ETV
attr interpolationmode sample-hold
vector 580 scenario.client4.tcp.conn-56 cwnd:vector ETV
attr interpolationmode sample-hold
vector 581 scenario.client4.tcp.conn-56 ssthresh:vector ETV
attr interpolationmode sample-hold
vector 582 scenario.client4.tcp.conn-56 dupAcks:vector ETV
attr interpolationmode sample-hold
vector 583 scenario.client2.tcp.conn-55 rtt:vector ETV
attr interpolationmode sample-hold
vector 584 scenario.client2.tcp.conn-55 srtt:vector ETV
attr interpolationmode sample-hold
vector 585 scenario.client2.tcp.conn-55 rttvar:vector ETV
attr interpolationmode sample-hold
vector 586 scenario.client2.tcp.conn-55 rto:vector ETV
attr interpolationmode sample-hold
vector 587 scenario.client2.tcp.conn-55 cwnd:vector ETV
attr interpolationmode sample-hold
vector 588 scenario.client2.tcp.conn-55 ssthresh:vector ETV
attr interpolationmode sample-hold
vector 589 scenario.client2.tcp.conn-55 dupAcks:vector ETV
attr interpolationmode sample-hold
vector 590 scenario.client0.tcp.conn-57 tcpRcvQueueBytes:vector ETV
attr interpolationmode sample-hold
vector 591 scenario.client0.tcp.conn-57 rcvAdv:vector ETV
attr interpolationmode sample-hold
vector 592 scenario.client0.tcp.conn-57 rcvWnd:vector ETV
attr interpolationmode sample-hold
vector 593 scenario.client0.tcp.conn-57 sndAck:vector ETV
attr interpolationmode sample-hold
vector 594 scenario.client3.tcp.conn-58 rcvAdv:vector ETV
attr interpolationmode sample-hold
vector 595 scenario.client3.tcp.conn-58 sndWnd:vector ETV
attr interpolationmode sample-hold
vector 596 scenario.client3.tcp.conn-58 tcpRcvQueueBytes:vector ETV
attr interpolationmode sample-hold
vector 597 scenario.client3.tcp.conn-58 rcvWnd:vector ETV
attr interpolationmode sample-hold
vector 598 scenario.client3.tcp.conn-58 sndAck:vector ETV
attr interpolationmode sample-hold
vector 599 scenario.client0.tcp.conn-57 rcvSeq:vector ETV
attr interpolationmode sample-hold
vector 600 scenario.client0.tcp.conn-57 rcvAck:vector ETV
attr interpolationmode sample-hold
vector 601 scenario.client0.tcp.conn-57 sndWnd:vector ETV
attr interpolationmode sample-hold
vector 602 scenario.client0.tcp.conn-57 unacked:vector ETV
attr interpolationmode sample-hold
vector 603 scenario.client3.tcp.conn-58 rcvSeq:vector ETV
attr interpolationmode sample-hold
vector 604 scenario.client3.tcp.conn-58 rcvAck:vector ETV
attr interpolationmode sample-hold
vector 605 scenario.client3.tcp.conn-58 unacked:vector ETV
attr interpolationmode sample-hold
vector 606 scenario.client3.tcp.conn-58 cwnd:vector ETV
attr interpolationmode sample-hold
vector 607 scenario.client3.tcp.conn-58 ssthresh:vector ETV
attr interpolationmode sample-hold
vector 608 scenario.client3.tcp.conn-58 dupAcks:vector ETV
attr interpolationmode sample-hold
vector 609 scenario.client0.tcp.conn-57 rtt:vector ETV
attr interpolationmode sample-hold
vector 610 scenario.client0.tcp.conn-57 srtt:vector ETV
attr interpolationmode sample-hold
vector 611 scenario.client0.tcp.conn-57 rttvar:vector ETV
attr interpolationmode sample-hold
vector 612 scenario.client0.tcp.conn-57 rto:vector ETV
attr interpolationmode sample-hold
vector 613 scenario.client0.tcp.conn-57 cwnd:vector ETV
attr interpolationmode sample-hold
vector 614 scenario.client0.tcp.conn-57 ssthresh:vector ETV
attr interpolationmode sample-hold
vector 615 scenario.client0.tcp.conn-57 dupAcks:vector ETV
attr interpolationmode sample-hold
vector 616 scenario.client0.tcp.conn-59 tcpRcvQueueBytes:vector ETV
attr interpolationmode sample-hold
vector 617 scenario.client0.tcp.conn-59 rcvAdv:vector ETV
attr interpolationmode sample-hold
vector 618 scenario.client0.tcp.conn-59 rcvWnd:vector ETV
attr interpolationmode sample-hold
vector 619 scenario.client0.tcp.conn-59 sndAck:vector ETV
attr interpolationmode sample-hold
vector 620 scenario.client4.tcp.conn-60 rcvAdv:vector ETV
attr interpolationmode sample-hold
vector 621 scenario.client4.tcp.conn-60 sndWnd:vector ETV
attr interpolationmode sample-hold
vector 622 scenario.client4.tcp.conn-60 tcpRcvQueueBytes:vector ETV
attr interpolationmode sample-hold
vector 623 scenario.client4.tcp.conn-60 rcvWnd:vector ETV
attr interpolationmode sample-hold
vector 624 scenario.client4.tcp.conn-60 sndAck:vector ETV
attr interpolationmode sample-hold
vector 625 scenario.client0.tcp.conn-59 rcvSeq:vector ETV
attr interpolationmode sample-hold
vector 626 scenario.client0.tcp.conn-59 rcvAck:vector ETV
attr interpolationmode sample-hold
vector 627 scenario.client0.tcp.conn-59 sndWnd:vector ETV
attr interpolationmode sample-hold
vector 628 scenario.client0.tcp.conn-59 unacked:vector ETV
attr interpolationmode sample-hold
vector 629 scenario.client4.tcp.conn-60 rcvSeq:vector ETV
attr interpolationmode sample-hold
vector 630 scenario.client4.tcp.conn-60 rcvAck:vector ETV
attr interpolationmode sample-hold
vector 631 scenario.client4.tcp.conn-60 unacked:vector ETV
attr interpolationmode sample-hold
vector 632 scenario.client4.tcp.conn-60 cwnd:vector ETV
attr interpolationmode sample-hold
vector 633 scenario.client4.tcp.conn-60 ssthresh:vector ETV
attr interpolationmode sample-hold
vector 634 scenario.client4.tcp.conn-60 dupAcks:vector ETV
attr interpolationmode sample-hold
vector 635 scenario.client0.tcp.conn-59 rtt:vector ETV
attr interpolationmode sample-hold
vector 636 scenario.client0.tcp.conn-59 srtt:vector ETV
attr interpolationmode sample-hold
vector 637 scenario.client0.tcp.conn-59 rttvar:vector ETV
attr interpolationmode sample-hold
vector 638 scenario.client0.tcp.conn-59 rto:vector ETV
attr interpolationmode sample-hold
vector 639 scenario.client0.tcp.conn-59 cwnd:vector ETV
attr interpolationmode sample-hold
vector 640 scenario.client0.tcp.conn-59 ssthresh:vector ETV
attr interpolationmode sample-hold
vector 641 scenario.client0.tcp.conn-59 dupAcks:vector ETV
attr interpolationmode sample-hold
vector 642 scenario.client3.tcp.conn-61 tcpRcvQueueBytes:vector ETV
attr interpolationmode sample-hold
vector 643 scenario.client3.tcp.conn-61 rcvAdv:vector ETV
attr interpolationmode sample-hold
vector 644 scenario.client3.tcp.conn-61 rcvWnd:vector ETV
attr interpolationmode sample-hold
vector 645 scenario.client3.tcp.conn-61 sndAck:vector ETV
attr interpolationmode sample-hold
vector 646 scenario.client3.ppp[3].ppp rcvdPkFromHl:vector(packetBytes) ETV
attr interpolationmode none
attr source packetReceivedFromUpper
attr title "packets received from higher layer, vector(packetBytes)"
vector 647 scenario.client3.ppp[3].ppp.queue packetPushed:vector(packetBytes) ETV
attr interpolationmode none
attr title "packet pushed, vector(packetBytes)"
vector 648 scenario.client3.ppp[3].ppp.queue queueLength:vector ETV
attr interpolationmode sample-hold
attr source "count(packetPushed) - count(packetPopped) - count(packetRemoved) - count(packetDropped)"
attr title "queue length, vector"
vector 649 scenario.client3.ppp[3].ppp.queue packetPopped:vector(packetBytes) ETV
attr interpolationmode none
attr title "packet popped, vector(packetBytes)"
vector 650 scenario.client3.ppp[3].ppp.queue queueingTime:vector ETV
attr interpolationmode none
attr source queueingTime(packetPopped)
attr title "queueing times, vector"
attr unit s
vector 651 scenario.client3.ppp[3].ppp txPk:vector(packetBytes) ETV
attr interpolationmode none
attr source packetSentToLower
attr title "packets transmitted, vector(packetBytes)"
vector 652 scenario.client4.ppp[3].ppp rxPkOk:vector(packetBytes) ETV
attr interpolationmode none
attr source rxPkOk
attr title "packets received OK, vector(packetBytes)"
vector 653 scenario.client4.ppp[3].ppp passedUpPk:vector(packetBytes) ETV
attr interpolationmode none
attr source packetSentToUpper
attr title "packets passed to higher layer, vector(packetBytes)"
vector 654 scenario.client4.tcp.conn-62 rcvAdv:vector ETV
attr interpolationmode sample-hold
vector 655 scenario.client4.tcp.conn-62 sndWnd:vector ETV
attr interpolationmode sample-hold
vector 656 scenario.client4.tcp.conn-62 tcpRcvQueueBytes:vector ETV
attr interpolationmode sample-hold
vector 657 scenario.client4.tcp.conn-62 rcvWnd:vector ETV
attr interpolationmode sample-hold
vector 658 scenario.client4.tcp.conn-62 sndAck:vector ETV
attr interpolationmode sample-hold
vector 659 scenario.client4.ppp[3].ppp rcvdPkFromHl:vector(packetBytes) ETV
attr interpolationmode none
attr source packetReceivedFromUpper
attr title "packets received from higher layer, vector(packetBytes)"
vector 660 scenario.client4.ppp[3].ppp.queue packetPushed:vector(packetBytes) ETV
attr interpolationmode none
attr title "packet pushed, vector(packetBytes)"
vector 661 scenario.client4.ppp[3].ppp.queue queueLength:vector ETV
attr interpolationmode sample-hold
attr source "count(packetPushed) - count(packetPopped) - count(packetRemoved) - count(packetDropped)"
attr title "queue length, vector"
vector 662 scenario.client4.ppp[3].ppp.queue packetPopped:vector(packetBytes) ETV
attr interpolationmode none
attr title "packet popped, vector(packetBytes)"
vector 663 scenario.client4.ppp[3].ppp.queue queueingTime:vector ETV
[...]
602	2240	8.145900816554	1
602	2253	8.147660816554	0
602	2776	8.731641532151	1
602	2789	8.733401532151	0
603	576	1.557005273598	388577
603	858	2.744422506668	388578
603	1059	2.894170906216	388580
603	1189	3.362444842066	388581
603	1533	6.720563313211	388582
603	1918	7.789688773949	388583
603	1953	7.921406660847	388584
603	2065	8.065000100833	388585
603	2175	8.141349411542	388587
603	2246	8.146784816554	388588
603	2782	8.732525532151	388589
604	576	1.557005273598	388804
604	858	2.744422506668	388804
604	1059	2.894170906216	388804
604	1189	3.362444842066	388804
604	1533	6.720563313211	388804
604	1918	7.789688773949	388804
604	1953	7.921406660847	388804
604	2065	8.065000100833	388804
604	2175	8.141349411542	388804
604	2246	8.146784816554	388804
604	2782	8.732525532151	388804
605	576	1.557005273598	0
606	576	1.557005273598	1072
607	576	1.557005273598	4294967295
608	576	1.557005273598	0
608	858	2.744422506668	0
608	1059	2.894170906216	0
608	1189	3.362444842066	0
608	1533	6.720563313211	0
608	1918	7.789688773949	0
608	1953	7.921406660847	0
608	2065	8.065000100833	0
608	2175	8.141349411542	0
608	2246	8.146784816554	0
608	2782	8.732525532151	0
609	586	1.557881273598	0.00176
609	890	2.745298506668	0.001768
609	1066	2.895046906216	0.00176
609	1196	3.363320842066	0.00176
609	1540	6.721439313211	0.00176
609	1925	7.790564773949	0.00176
609	1960	7.922282660847	0.00176
609	2093	8.065876100833	0.001768
609	2198	8.142225411542	0.00176
609	2253	8.147660816554	0.00176
609	2789	8.733401532151	0.00176
610	586	1.557881273598	0.00022
610	890	2.745298506668	0.0004135
610	1066	2.895046906216	0.0005818125
610	1196	3.363320842066	0.000729085938
610	1540	6.721439313211	0.000857950196
610	1925	7.790564773949	0.000970706422
610	1960	7.922282660847	0.001069368119
610	2093	8.065876100833	0.001156697104
610	2198	8.142225411542	0.001232109966
610	2253	8.147660816554	0.00129809622
610	2789	8.733401532151	0.001355834193
611	586	1.557881273598	0.65647
611	890	2.745298506668	0.57460475
611	1066	2.895046906216	0.50294746875
611	1196	3.363320842066	0.440226308594
611	1540	6.721439313211	0.385326884278
611	1925	7.790564773949	0.337273779969
611	1960	7.922282660847	0.29521321917
611	2093	8.065876100833	0.258398895759
611	2198	8.142225411542	0.226174446651
611	2253	8.147660816554	0.197968627074
611	2789	8.733401532151	0.173280286662
612	586	1.557881273598	2.6261
612	890	2.745298506668	2.2988325
612	1066	2.895046906216	2.0123716875
612	1196	3.363320842066	1.761634320314
612	1540	6.721439313211	1.542165487308
612	1925	7.790564773949	1.350065826298
612	1960	7.922282660847	1.181922244799
612	2093	8.065876100833	1.03475228014
612	2198	8.142225411542	1
612	2253	8.147660816554	1
612	2789	8.733401532151	1
613	586	1.557881273598	1072
613	890	2.745298506668	1608
613	1066	2.895046906216	2144
613	1196	3.363320842066	2680
613	1540	6.721439313211	1072
613	1925	7.790564773949	1608
613	1960	7.922282660847	2144
613	2093	8.065876100833	2680
613	2198	8.142225411542	3216
613	2253	8.147660816554	3752
613	2789	8.733401532151	4288
614	586	1.557881273598	4294967295
614	890	2.745298506668	4294967295
614	1066	2.895046906216	4294967295
614	1196	3.363320842066	4294967295
614	1540	6.721439313211	4294967295
614	1925	7.790564773949	4294967295
614	1960	7.922282660847	4294967295
614	2093	8.065876100833	4294967295
614	2198	8.142225411542	4294967295
614	2253	8.147660816554	4294967295
614	2789	8.733401532151	4294967295
615	586	1.557881273598	0
615	890	2.745298506668	0
615	1066	2.895046906216	0
615	1196	3.363320842066	0
615	1540	6.721439313211	0
615	1925	7.790564773949	0
615	1960	7.922282660847	0
615	2093	8.065876100833	0
615	2198	8.142225411542	0
615	2253	8.147660816554	0
615	2789	8.733401532151	0
616	648	2.043893884091	0
616	661	2.045709884091	0
616	1006	2.825723815912	0
616	1365	5.696974578936	0
616	2039	8.064108100833	0
616	2561	8.461003390117	0
616	2591	8.520787076632	0
617	648	2.043893884091	7504
617	661	2.045709884091	518705
617	661	2.045709884091	518705
617	1006	2.825723815912	518705
617	1365	5.696974578936	518705
617	2039	8.064108100833	518705
617	2561	8.461003390117	518705
617	2591	8.520787076632	518705
618	648	2.043893884091	7504
618	661	2.045709884091	7504
618	1006	2.825723815912	7504
618	1365	5.696974578936	7504
618	2039	8.064108100833	7504
618	2561	8.461003390117	7504
618	2591	8.520787076632	7504
619	648	2.043893884091	0
619	661	2.045709884091	511201
619	1006	2.825723815912	511201
619	1365	5.696974578936	511201
619	2039	8.064108100833	511201
619	2561	8.461003390117	511201
619	2591	8.520787076632	511201
620	655	2.044801884091	518478
620	655	2.044801884091	518478
620	668	2.046593884091	518478
620	1033	2.826607815912	518480
620	1371	5.697858578936	518481
620	2080	8.065376100833	518483
620	2567	8.461887390117	518484
620	2597	8.521671076632	518485
621	655	2.044801884091	7504
621	668	2.046593884091	7504
622	655	2.044801884091	0
622	668	2.046593884091	0
622	668	2.046593884091	1
622	1033	2.826607815912	0
622	1033	2.826607815912	0
622	1371	5.697858578936	0
622	1371	5.697858578936	0
622	2080	8.065376100833	0
622	2080	8.065376100833	0
622	2567	8.461887390117	0
622	2567	8.461887390117	0
622	2597	8.521671076632	0
622	2597	8.521671076632	0
623	655	2.044801884091	7504
623	668	2.046593884091	7503
623	1033	2.826607815912	7504
623	1371	5.697858578936	7504
623	2080	8.065376100833	7504
623	2567	8.461887390117	7504
623	2597	8.521671076632	7504
624	655	2.044801884091	510974
624	668	2.046593884091	510975
624	1033	2.826607815912	510976
624	1371	5.697858578936	510977
624	2080	8.065376100833	510979
624	2567	8.461887390117	510980
624	2597	8.521671076632	510981
625	661	2.045709884091	511200
625	678	2.047469884091	511201
625	1050	2.827483815912	511201
625	1378	5.698734578936	511201
625	2096	8.066252100833	511201
625	2574	8.462763390117	511201
625	2604	8.522547076632	511201
626	661	2.045709884091	510974
626	678	2.047469884091	510975
626	1050	2.827483815912	510976
626	1378	5.698734578936	510977
626	2096	8.066252100833	510979
626	2574	8.462763390117	510980
626	2604	8.522547076632	510981
627	661	2.045709884091	7504
627	678	2.047469884091	7503
627	1050	2.827483815912	7504
627	1378	5.698734578936	7504
627	2096	8.066252100833	7504
627	2574	8.462763390117	7504
627	2604	8.522547076632	7504
628	661	2.045709884091	1
628	678	2.047469884091	0
628	1006	2.825723815912	1
628	1050	2.827483815912	0
628	1365	5.696974578936	1
628	1378	5.698734578936	0
628	2039	8.064108100833	2
628	2096	8.066252100833	0
628	2561	8.461003390117	1
628	2574	8.462763390117	0
628	2591	8.520787076632	1
628	2604	8.522547076632	0
629	668	2.046593884091	510974
629	1033	2.826607815912	510975
629	1371	5.697858578936	510976
629	2080	8.065376100833	510977
629	2567	8.461887390117	510979
629	2597	8.521671076632	510980
630	668	2.046593884091	511201
630	1033	2.826607815912	511201
630	1371	5.697858578936	511201
630	2080	8.065376100833	511201
630	2567	8.461887390117	511201
630	2597	8.521671076632	511201
631	668	2.046593884091	0
632	668	2.046593884091	1072
633	668	2.046593884091	4294967295
634	668	2.046593884091	0
634	1033	2.826607815912	0
634	1371	5.697858578936	0
634	2080	8.065376100833	0
634	2567	8.461887390117	0
634	2597	8.521671076632	0
635	678	2.047469884091	0.00176
635	1050	2.827483815912	0.00176
635	1378	5.698734578936	0.00176
635	2096	8.066252100833	0.002144
635	2574	8.462763390117	0.00176
635	2604	8.522547076632	0.00176
636	678	2.047469884091	0.00022
636	1050	2.827483815912	0.0004125
636	1378	5.698734578936	0.0005809375
636	2096	8.066252100833	0.000776320313
636	2574	8.462763390117	0.000899280274
636	2604	8.522547076632	0.00100687024
637	678	2.047469884091	0.65647
637	1050	2.827483815912	0.57460375
637	1378	5.698734578936	0.50294671875
637	2096	8.066252100833	0.440273761719
637	2574	8.462763390117	0.385362501465
637	2604	8.522547076632	0.337299778748
638	678	2.047469884091	2.6261
638	1050	2.827483815912	2.2988275
638	1378	5.698734578936	2.0123678125
638	2096	8.066252100833	1.761871367189
638	2574	8.462763390117	1.542349286134
638	2604	8.522547076632	1.350205985232
639	678	2.047469884091	1072
639	1050	2.827483815912	1608
639	1378	5.698734578936	1072
639	2096	8.066252100833	1072
639	2574	8.462763390117	1608
639	2604	8.522547076632	2144
640	678	2.047469884091	4294967295
640	1050	2.827483815912	4294967295
640	1378	5.698734578936	4294967295
640	2096	8.066252100833	4294967295
640	2574	8.462763390117	4294967295
640	2604	8.522547076632	4294967295
641	678	2.047469884091	0
641	1050	2.827483815912	0
641	1378	5.698734578936	0
641	2096	8.066252100833	0
641	2574	8.462763390117	0
641	2604	8.522547076632	0
642	868	2.744422506668	0
642	912	2.746238506668	0
642	1497	6.706664354381	0
642	2012	8.058860990753	0
642	2181	8.141349411542	0
642	2746	8.687451767204	0
642	2791	8.744547751335	0
643	868	2.744422506668	7504
643	912	2.746238506668	693837
643	912	2.746238506668	693837
643	1497	6.706664354381	693837
643	2012	8.058860990753	693837
643	2181	8.141349411542	693837
643	2746	8.687451767204	693837
643	2791	8.744547751335	693837
644	868	2.744422506668	7504
644	912	2.746238506668	7504
644	1497	6.706664354381	7504
644	2012	8.058860990753	7504
644	2181	8.141349411542	7504
644	2746	8.687451767204	7504
644	2791	8.744547751335	7504
645	868	2.744422506668	0
645	912	2.746238506668	686333
645	1497	6.706664354381	686333
645	2012	8.058860990753	686333
645	2181	8.141349411542	686333
645	2746	8.687451767204	686333
645	2791	8.744547751335	686333
646	873	2.744422506668	44
646	915	2.746238506668	41
646	1434	6.39449911301	44
646	1449	6.39629111301	40
646	1499	6.706664354381	41
646	2014	8.058860990753	41
646	2190	8.141349411542	42
646	2748	8.687451767204	41
646	2770	8.720774869228	40
646	2793	8.744547751335	41
647	873	2.744422506668	44
647	915	2.746238506668	41
647	1434	6.39449911301	44
647	1449	6.39629111301	40
647	1499	6.706664354381	41
647	2014	8.058860990753	41
647	2190	8.141349411542	42
647	2748	8.687451767204	41
647	2770	8.720774869228	40
647	2793	8.744547751335	41
648	873	2.744422506668	1
648	873	2.744422506668	0
648	915	2.746238506668	1
648	915	2.746238506668	0
648	1434	6.39449911301	1
648	1434	6.39449911301	0
648	1449	6.39629111301	1
648	1449	6.39629111301	0
648	1499	6.706664354381	1
648	1499	6.706664354381	0
648	2014	8.058860990753	1
648	2014	8.058860990753	0
648	2190	8.141349411542	1
648	2190	8.141349411542	0
648	2748	8.687451767204	1
648	2748	8.687451767204	0
648	2770	8.720774869228	1
648	2770	8.720774869228	0
648	2793	8.744547751335	1
648	2793	8.744547751335	0
649	873	2.744422506668	44
649	915	2.746238506668	41
649	1434	6.39449911301	44
649	1449	6.39629111301	40
649	1499	6.706664354381	41
649	2014	8.058860990753	41
649	2190	8.141349411542	42
649	2748	8.687451767204	41
649	2770	8.720774869228	40
649	2793	8.744547751335	41
650	873	2.744422506668	0
650	915	2.746238506668	0
650	1434	6.39449911301	0
650	1449	6.39629111301	0
650	1499	6.706664354381	0
650	2014	8.058860990753	0
650	2190	8.141349411542	0
650	2748	8.687451767204	0
650	2770	8.720774869228	0
650	2793	8.744547751335	0
651	873	2.744422506668	51
651	915	2.746238506668	48
651	1434	6.39449911301	51
651	1449	6.39629111301	47
651	1499	6.706664354381	48
651	2014	8.058860990753	48
651	2190	8.141349411542	49
651	2748	8.687451767204	48
651	2770	8.720774869228	47
651	2793	8.744547751335	48
652	897	2.745330506668	51
652	917	2.747122506668	48
652	1436	6.39540711301	51
652	1453	6.39716711301	47
652	1501	6.707548354381	48
652	2016	8.059744990753	48
652	2201	8.142241411542	49
652	2750	8.688335767204	48
652	2772	8.721650869228	47
652	2795	8.745431751335	48
653	897	2.745330506668	44
653	917	2.747122506668	41
653	1436	6.39540711301	44
653	1453	6.39716711301	40
653	1501	6.707548354381	41
653	2016	8.059744990753	41
653	2201	8.142241411542	42
653	2750	8.688335767204	41
653	2772	8.721650869228	40
653	2795	8.745431751335	41
654	899	2.745330506668	693610
654	899	2.745330506668	693610
654	919	2.747122506668	693610
654	1503	6.707548354381	693612
654	2018	8.059744990753	693613
654	2207	8.142241411542	693615
654	2752	8.688335767204	693616
654	2797	8.745431751335	693617
655	899	2.745330506668	7504
655	919	2.747122506668	7504
656	899	2.745330506668	0
656	919	2.747122506668	0
656	919	2.747122506668	1
656	1503	6.707548354381	0
656	1503	6.707548354381	0
656	2018	8.059744990753	0
656	2018	8.059744990753	0
656	2207	8.142241411542	0
656	2207	8.142241411542	0
656	2752	8.688335767204	0
656	2752	8.688335767204	0
656	2797	8.745431751335	0
656	2797	8.745431751335	0
657	899	2.745330506668	7504
657	919	2.747122506668	7503
657	1503	6.707548354381	7504
657	2018	8.059744990753	7504
657	2207	8.142241411542	7504
657	2752	8.688335767204	7504
657	2797	8.745431751335	7504
658	899	2.745330506668	686106
658	919	2.747122506668	686107
658	1503	6.707548354381	686108
658	2018	8.059744990753	686109
658	2207	8.142241411542	686111
658	2752	8.688335767204	686112
658	2797	8.745431751335	686113
659	901	2.745330506668	44
659	923	2.747122506668	40
659	1428	6.39359111301	44
659	1441	6.39540711301	41
659	1506	6.707548354381	40
659	2021	8.059744990753	40
659	2216	8.142241411542	40
659	2755	8.688335767204	40
659	2763	8.719890869228	41
659	2800	8.745431751335	40
660	901	2.745330506668	44
660	923	2.747122506668	40
660	1428	6.39359111301	44
660	1441	6.39540711301	41
660	1506	6.707548354381	40
660	2021	8.059744990753	40
660	2216	8.142241411542	40
660	2755	8.688335767204	40
660	2763	8.719890869228	41
660	2800	8.745431751335	40
661	901	2.745330506668	1
661	901	2.745330506668	0
661	923	2.747122506668	1
661	923	2.747122506668	0
661	1428	6.39359111301	1
661	1428	6.39359111301	0
661	1441	6.39540711301	1
661	1441	6.39540711301	0
661	1506	6.707548354381	1
661	1506	6.707548354381	0
661	2021	8.059744990753	1
661	2021	8.059744990753	0
661	2216	8.142241411542	1
661	2216	8.142241411542	0
661	2755	8.688335767204	1
661	2755	8.688335767204	0
661	2763	8.719890869228	1
661	2763	8.719890869228	0
661	2800	8.745431751335	1
661	2800	8.745431751335	0
662	901	2.745330506668	44
662	923	2.747122506668	40
662	1428	6.39359111301	44
662	1441	6.39540711301	41
662	1506	6.707548354381	40
662	2021	8.059744990753	40
662	2216	8.142241411542	40
662	2755	8.688335767204	40
662	2763	8.719890869228	41
662	2800	8.745431751335	40
663	901	2.745330506668	0
663	923	2.747122506668	0
663	1428	6.39359111301	0
663	1441	6.39540711301	0
663	1506	6.707548354381	0
663	2021	8.059744990753	0
663	2216	8.142241411542	0
663	2755	8.688335767204	0
663	2763	8.719890869228	0
663	2800	8.745431751335	0
664	901	2.745330506668	51
664	923	2.747122506668	47
664	1428	6.39359111301	51
664	1441	6.39540711301	48
664	1506	6.707548354381	47
664	2021	8.059744990753	47
664	2216	8.142241411542	47
664	2755	8.688335767204	47
664	2763	8.719890869228	48
664	2800	8.745431751335	47
665	910	2.746238506668	51
665	927	2.747998506668	47
665	1430	6.39449911301	51
665	1443	6.39629111301	48
665	1508	6.708424354381	47
665	2023	8.060620990753	47
665	2229	8.143117411542	47
665	2757	8.689211767204	47
665	2765	8.720774869228	48
665	2802	8.746307751335	47
666	910	2.746238506668	44
666	927	2.747998506668	40
666	1430	6.39449911301	44
666	1443	6.39629111301	41
666	1508	6.708424354381	40
666	2023	8.060620990753	40
666	2229	8.143117411542	40
666	2757	8.689211767204	40
666	2765	8.720774869228	41
666	2802	8.746307751335	40
667	912	2.746238506668	686332
667	929	2.747998506668	686333
667	1510	6.708424354381	686333
667	2025	8.060620990753	686333
667	2235	8.143117411542	686333
667	2759	8.689211767204	686333
667	2804	8.746307751335	686333
668	912	2.746238506668	686106
668	929	2.747998506668	686107
668	1510	6.708424354381	686108
668	2025	8.060620990753	686109
668	2235	8.143117411542	686111
668	2759	8.689211767204	686112
668	2804	8.746307751335	686113
669	912	2.746238506668	7504
669	929	2.747998506668	7503
669	1510	6.708424354381	7504
669	2025	8.060620990753	7504
669	2235	8.143117411542	7504
669	2759	8.689211767204	7504
669	2804	8.746307751335	7504
670	912	2.746238506668	1
670	929	2.747998506668	0
670	1497	6.706664354381	1
670	1510	6.708424354381	0
670	2012	8.058860990753	1
670	2025	8.060620990753	0
670	2181	8.141349411542	2
670	2235	8.143117411542	0
670	2746	8.687451767204	1
670	2759	8.689211767204	0
670	2791	8.744547751335	1
670	2804	8.746307751335	0
671	919	2.747122506668	686106
671	1503	6.707548354381	686107
671	2018	8.059744990753	686108
671	2207	8.142241411542	686109
671	2752	8.688335767204	686111
671	2797	8.745431751335	686112
672	919	2.747122506668	686333
672	1503	6.707548354381	686333
672	2018	8.059744990753	686333
672	2207	8.142241411542	686333
672	2752	8.688335767204	686333
672	2797	8.745431751335	686333
673	919	2.747122506668	0
674	919	2.747122506668	1072
675	919	2.747122506668	4294967295
676	919	2.747122506668	0
676	1503	6.707548354381	0
676	2018	8.059744990753	0
676	2207	8.142241411542	0
676	2752	8.688335767204	0
676	2797	8.745431751335	0
677	929	2.747998506668	0.00176
677	1510	6.708424354381	0.00176
677	2025	8.060620990753	0.00176
677	2235	8.143117411542	0.001768
677	2759	8.689211767204	0.00176
677	2804	8.746307751335	0.00176
678	929	2.747998506668	0.00022
678	1510	6.708424354381	0.0004125
678	2025	8.060620990753	0.0005809375
678	2235	8.143117411542	0.000729320313
678	2759	8.689211767204	0.000858155274
678	2804	8.746307751335	0.000970885865
679	929	2.747998506668	0.65647
679	1510	6.708424354381	0.57460375
679	2025	8.060620990753	0.50294671875
679	2235	8.143117411542	0.440226761719
679	2759	8.689211767204	0.385327251465
679	2804	8.746307751335	0.337274075623
680	929	2.747998506668	2.6261
680	1510	6.708424354381	2.2988275
680	2025	8.060620990753	2.0123678125
680	2235	8.143117411542	1.761636367189
680	2759	8.689211767204	1.542167161134
680	2804	8.746307751335	1.350067188357
681	929	2.747998506668	1072
681	1510	6.708424354381	1072
681	2025	8.060620990753	1608
681	2235	8.143117411542	2144
681	2759	8.689211767204	2680
681	2804	8.746307751335	3216
682	929	2.747998506668	4294967295
682	1510	6.708424354381	4294967295
682	2025	8.060620990753	4294967295
682	2235	8.143117411542	4294967295
682	2759	8.689211767204	4294967295
682	2804	8.746307751335	4294967295
683	929	2.747998506668	0
683	1510	6.708424354381	0
683	2025	8.060620990753	0
683	2235	8.143117411542	0
683	2759	8.689211767204	0
683	2804	8.746307751335	0
684	1425	6.39359111301	0
684	1438	6.39540711301	0
684	2761	8.719890869228	0
685	1425	6.39359111301	7504
685	1438	6.39540711301	1606129
685	1438	6.39540711301	1606129
685	2761	8.719890869228	1606129
686	1425	6.39359111301	7504
686	1438	6.39540711301	7504
686	2761	8.719890869228	7504
687	1425	6.39359111301	0
687	1438	6.39540711301	1598625
687	2761	8.719890869228	1598625
688	1432	6.39449911301	1605902
688	1432	6.39449911301	1605902
688	1445	6.39629111301	1605902
688	2767	8.720774869228	1605904
689	1432	6.39449911301	7504
689	1445	6.39629111301	7504
690	1432	6.39449911301	0
690	1445	6.39629111301	0
690	1445	6.39629111301	1
690	2767	8.720774869228	0
690	2767	8.720774869228	0
691	1432	6.39449911301	7504
691	1445	6.39629111301	7503
691	2767	8.720774869228	7504
692	1432	6.39449911301	1598398
692	1445	6.39629111301	1598399
692	2767	8.720774869228	1598400
693	1438	6.39540711301	1598624
693	1455	6.39716711301	1598625
693	2774	8.721650869228	1598625
694	1438	6.39540711301	1598398
694	1455	6.39716711301	1598399
694	2774	8.721650869228	1598400
695	1438	6.39540711301	7504
695	1455	6.39716711301	7503
695	2774	8.721650869228	7504
696	1438	6.39540711301	1
696	1455	6.39716711301	0
696	2761	8.719890869228	1
696	2774	8.721650869228	0
697	1445	6.39629111301	1598398
697	2767	8.720774869228	1598399
698	1445	6.39629111301	1598625
698	2767	8.720774869228	1598625
699	1445	6.39629111301	0
700	1445	6.39629111301	1072
701	1445	6.39629111301	4294967295
702	1445	6.39629111301	0
702	2767	8.720774869228	0
703	1455	6.39716711301	0.00176
703	2774	8.721650869228	0.00176
704	1455	6.39716711301	0.00022
704	2774	8.721650869228	0.0004125
705	1455	6.39716711301	0.65647
705	2774	8.721650869228	0.57460375
706	1455	6.39716711301	2.6261
706	2774	8.721650869228	2.2988275
707	1455	6.39716711301	1072
707	2774	8.721650869228	1608
708	1455	6.39716711301	4294967295
708	2774	8.721650869228	4294967295
709	1455	6.39716711301	0
709	2774	8.721650869228	0

