file 305393 1641762600                                          
version 2
run BROADCAST5-0-20220109-22:09:58-13652
attr configname BROADCAST5
attr datetime 20220109-22:09:58
attr experiment BROADCAST5
attr inifile omnetpp.ini
attr iterationvars ""
attr iterationvarsf ""
attr measurement ""
attr network scenario
attr processid 13652
attr repetition 0
attr replication #0
attr resultdir results
attr runnumber 0
attr seedset 0
param **.client3.app[0].join 0.35
param **.client4.app[0].join 0.40
param **.client*.app[*].timer 0.2
param **.ppp[*].ppp.queue.typename "\"DropTailQueue\""
param **.tcp.typename "\"Tcp\""
param **.tcp.nagleEnabled false
param **.cli*.app[*].nPar 5
param **.cli*.app[*].fPar 0
param **.numApps 1
param **.client0.app[*].typename "\"Node\""
param **.client0.app[0].localPort 1000
param **.client0.app[0].localPortL 1234
param **.client0.app[0].connectAddress "\"\""
param **.client0.app[0].connectPort 1234
param **.client1.app[*].typename "\"Node\""
param **.client1.app[0].localPort 1001
param **.client1.app[0].localPortL 1234
param **.client1.app[0].connectAddress "\"\""
param **.client1.app[0].connectPort 1234
param **.client2.app[*].typename "\"Node\""
param **.client2.app[0].localPort 1002
param **.client2.app[0].localPortL 1234
param **.client2.app[0].connectAddress "\"\""
param **.client2.app[0].connectPort 1234
param **.client3.app[*].typename "\"Node\""
param **.client3.app[0].localPort 1003
param **.client3.app[0].localPortL 1234
param **.client3.app[0].connectAddress "\"\""
param **.client3.app[0].connectPort 1234
param **.client4.app[*].typename "\"Node\""
param **.client4.app[0].localPort 1004
param **.client4.app[0].localPortL 1234
param **.client4.app[0].connectAddress "\"\""
param **.client4.app[0].connectPort 1234
param *.configurator.dumpAddresses true
param *.configurator.dumpTopology true
param *.configurator.dumpLinks true
param *.configurator.dumpRoutes true

vector 0 scenario.client0.ppp[0].ppp transmissionState:vector ETV
attr interpolationmode sample-hold
attr source transmissionStateChanged
attr title "tx state, vector"
vector 1 scenario.client0.ppp[1].ppp transmissionState:vector ETV
attr interpolationmode sample-hold
attr source transmissionStateChanged
attr title "tx state, vector"
vector 2 scenario.client0.ppp[2].ppp transmissionState:vector ETV
attr interpolationmode sample-hold
attr source transmissionStateChanged
attr title "tx state, vector"
vector 3 scenario.client0.ppp[3].ppp transmissionState:vector ETV
attr interpolationmode sample-hold
attr source transmissionStateChanged
attr title "tx state, vector"
vector 4 scenario.client1.ppp[0].ppp transmissionState:vector ETV
attr interpolationmode sample-hold
attr source transmissionStateChanged
attr title "tx state, vector"
vector 5 scenario.client1.ppp[1].ppp transmissionState:vector ETV
attr interpolationmode sample-hold
attr source transmissionStateChanged
attr title "tx state, vector"
vector 6 scenario.client1.ppp[2].ppp transmissionState:vector ETV
attr interpolationmode sample-hold
attr source transmissionStateChanged
attr title "tx state, vector"
vector 7 scenario.client1.ppp[3].ppp transmissionState:vector ETV
attr interpolationmode sample-hold
attr source transmissionStateChanged
attr title "tx state, vector"
vector 8 scenario.client2.ppp[0].ppp transmissionState:vector ETV
attr interpolationmode sample-hold
attr source transmissionStateChanged
attr title "tx state, vector"
vector 9 scenario.client2.ppp[1].ppp transmissionState:vector ETV
attr interpolationmode sample-hold
attr source transmissionStateChanged
attr title "tx state, vector"
vector 10 scenario.client2.ppp[2].ppp transmissionState:vector ETV
attr interpolationmode sample-hold
attr source transmissionStateChanged
attr title "tx state, vector"
vector 11 scenario.client2.ppp[3].ppp transmissionState:vector ETV
attr interpolationmode sample-hold
attr source transmissionStateChanged
attr title "tx state, vector"
vector 12 scenario.client3.ppp[0].ppp transmissionState:vector ETV
attr interpolationmode sample-hold
attr source transmissionStateChanged
attr title "tx state, vector"
vector 13 scenario.client3.ppp[1].ppp transmissionState:vector ETV
attr interpolationmode sample-hold
attr source transmissionStateChanged
attr title "tx state, vector"
vector 14 scenario.client3.ppp[2].ppp transmissionState:vector ETV
attr interpolationmode sample-hold
attr source transmissionStateChanged
attr title "tx state, vector"
vector 15 scenario.client3.ppp[3].ppp transmissionState:vector ETV
attr interpolationmode sample-hold
attr source transmissionStateChanged
attr title "tx state, vector"
vector 16 scenario.client4.ppp[0].ppp transmissionState:vector ETV
attr interpolationmode sample-hold
attr source transmissionStateChanged
attr title "tx state, vector"
vector 17 scenario.client4.ppp[1].ppp transmissionState:vector ETV
attr interpolationmode sample-hold
attr source transmissionStateChanged
attr title "tx state, vector"
vector 18 scenario.client4.ppp[2].ppp transmissionState:vector ETV
attr interpolationmode sample-hold
attr source transmissionStateChanged
attr title "tx state, vector"
vector 19 scenario.client4.ppp[3].ppp transmissionState:vector ETV
attr interpolationmode sample-hold
attr source transmissionStateChanged
attr title "tx state, vector"
vector 20 scenario.client4.tcp.conn-25 tcpRcvQueueBytes:vector ETV
attr interpolationmode sample-hold
vector 21 scenario.client4.tcp.conn-25 rcvAdv:vector ETV
attr interpolationmode sample-hold
vector 22 scenario.client4.tcp.conn-25 rcvWnd:vector ETV
attr interpolationmode sample-hold
vector 23 scenario.client4.tcp.conn-25 sndAck:vector ETV
attr interpolationmode sample-hold
vector 24 scenario.client4.ppp[2].ppp rcvdPkFromHl:vector(packetBytes) ETV
attr interpolationmode none
attr source packetReceivedFromUpper
attr title "packets received from higher layer, vector(packetBytes)"
vector 25 scenario.client4.ppp[2].ppp.queue packetPushed:vector(packetBytes) ETV
attr interpolationmode none
attr title "packet pushed, vector(packetBytes)"
vector 26 scenario.client4.ppp[2].ppp.queue queueLength:vector ETV
attr interpolationmode sample-hold
attr source "count(packetPushed) - count(packetPopped) - count(packetRemoved) - count(packetDropped)"
attr title "queue length, vector"
vector 27 scenario.client4.ppp[2].ppp.queue packetPopped:vector(packetBytes) ETV
attr interpolationmode none
attr title "packet popped, vector(packetBytes)"
vector 28 scenario.client4.ppp[2].ppp.queue queueingTime:vector ETV
attr interpolationmode none
attr source queueingTime(packetPopped)
attr title "queueing times, vector"
attr unit s
vector 29 scenario.client4.ppp[2].ppp txPk:vector(packetBytes) ETV
attr interpolationmode none
attr source packetSentToLower
attr title "packets transmitted, vector(packetBytes)"
vector 30 scenario.client2.ppp[3].ppp rxPkOk:vector(packetBytes) ETV
attr interpolationmode none
attr source rxPkOk
attr title "packets received OK, vector(packetBytes)"
vector 31 scenario.client2.ppp[3].ppp passedUpPk:vector(packetBytes) ETV
attr interpolationmode none
attr source packetSentToUpper
attr title "packets passed to higher layer, vector(packetBytes)"
vector 32 scenario.client2.tcp.conn-2 rcvSeq:vector ETV
attr interpolationmode sample-hold
vector 33 scenario.client2.tcp.conn-2 rcvAck:vector ETV
attr interpolationmode sample-hold
vector 34 scenario.client2.tcp.conn-26 rcvAdv:vector ETV
attr interpolationmode sample-hold
vector 35 scenario.client2.tcp.conn-26 sndWnd:vector ETV
attr interpolationmode sample-hold
vector 36 scenario.client2.tcp.conn-26 tcpRcvQueueBytes:vector ETV
attr interpolationmode sample-hold
vector 37 scenario.client2.tcp.conn-26 rcvWnd:vector ETV
attr interpolationmode sample-hold
vector 38 scenario.client2.tcp.conn-26 sndAck:vector ETV
attr interpolationmode sample-hold
vector 39 scenario.client2.ppp[3].ppp rcvdPkFromHl:vector(packetBytes) ETV
attr interpolationmode none
attr source packetReceivedFromUpper
attr title "packets received from higher layer, vector(packetBytes)"
vector 40 scenario.client2.ppp[3].ppp.queue packetPushed:vector(packetBytes) ETV
attr interpolationmode none
attr title "packet pushed, vector(packetBytes)"
vector 41 scenario.client2.ppp[3].ppp.queue queueLength:vector ETV
attr interpolationmode sample-hold
attr source "count(packetPushed) - count(packetPopped) - count(packetRemoved) - count(packetDropped)"
attr title "queue length, vector"
vector 42 scenario.client2.ppp[3].ppp.queue packetPopped:vector(packetBytes) ETV
attr interpolationmode none
attr title "packet popped, vector(packetBytes)"
vector 43 scenario.client2.ppp[3].ppp.queue queueingTime:vector ETV
attr interpolationmode none
attr source queueingTime(packetPopped)
attr title "queueing times, vector"
attr unit s
vector 44 scenario.client2.ppp[3].ppp txPk:vector(packetBytes) ETV
attr interpolationmode none
attr source packetSentToLower
attr title "packets transmitted, vector(packetBytes)"
vector 45 scenario.client4.ppp[2].ppp rxPkOk:vector(packetBytes) ETV
attr interpolationmode none
attr source rxPkOk
attr title "packets received OK, vector(packetBytes)"
vector 46 scenario.client4.ppp[2].ppp passedUpPk:vector(packetBytes) ETV
attr interpolationmode none
attr source packetSentToUpper
attr title "packets passed to higher layer, vector(packetBytes)"
vector 47 scenario.client4.tcp.conn-25 rcvSeq:vector ETV
attr interpolationmode sample-hold
vector 48 scenario.client4.tcp.conn-25 rcvAck:vector ETV
attr interpolationmode sample-hold
vector 49 scenario.client4.tcp.conn-25 sndWnd:vector ETV
attr interpolationmode sample-hold
vector 50 scenario.client4.tcp.conn-25 unacked:vector ETV
attr interpolationmode sample-hold
vector 51 scenario.client2.tcp.conn-26 rcvSeq:vector ETV
attr interpolationmode sample-hold
vector 52 scenario.client2.tcp.conn-26 rcvAck:vector ETV
attr interpolationmode sample-hold
vector 53 scenario.client2.tcp.conn-26 unacked:vector ETV
attr interpolationmode sample-hold
vector 54 scenario.client2.tcp.conn-26 cwnd:vector ETV
attr interpolationmode sample-hold
vector 55 scenario.client2.tcp.conn-26 ssthresh:vector ETV
attr interpolationmode sample-hold
vector 56 scenario.client2.tcp.conn-26 dupAcks:vector ETV
attr interpolationmode sample-hold
vector 57 scenario.client4.tcp.conn-25 rtt:vector ETV
attr interpolationmode sample-hold
vector 58 scenario.client4.tcp.conn-25 srtt:vector ETV
attr interpolationmode sample-hold
vector 59 scenario.client4.tcp.conn-25 rttvar:vector ETV
attr interpolationmode sample-hold
vector 60 scenario.client4.tcp.conn-25 rto:vector ETV
attr interpolationmode sample-hold
vector 61 scenario.client4.tcp.conn-25 cwnd:vector ETV
attr interpolationmode sample-hold
vector 62 scenario.client4.tcp.conn-25 ssthresh:vector ETV
attr interpolationmode sample-hold
vector 63 scenario.client4.tcp.conn-25 dupAcks:vector ETV
attr interpolationmode sample-hold
vector 64 scenario.client4.tcp.conn-27 tcpRcvQueueBytes:vector ETV
attr interpolationmode sample-hold
vector 65 scenario.client4.tcp.conn-27 rcvAdv:vector ETV
attr interpolationmode sample-hold
vector 66 scenario.client4.tcp.conn-27 rcvWnd:vector ETV
attr interpolationmode sample-hold
vector 67 scenario.client4.tcp.conn-27 sndAck:vector ETV
attr interpolationmode sample-hold
vector 68 scenario.client4.ppp[0].ppp rcvdPkFromHl:vector(packetBytes) ETV
attr interpolationmode none
attr source packetReceivedFromUpper
attr title "packets received from higher layer, vector(packetBytes)"
vector 69 scenario.client4.ppp[0].ppp.queue packetPushed:vector(packetBytes) ETV
attr interpolationmode none
attr title "packet pushed, vector(packetBytes)"
vector 70 scenario.client4.ppp[0].ppp.queue queueLength:vector ETV
attr interpolationmode sample-hold
attr source "count(packetPushed) - count(packetPopped) - count(packetRemoved) - count(packetDropped)"
attr title "queue length, vector"
vector 71 scenario.client4.ppp[0].ppp.queue packetPopped:vector(packetBytes) ETV
attr interpolationmode none
attr title "packet popped, vector(packetBytes)"
vector 72 scenario.client4.ppp[0].ppp.queue queueingTime:vector ETV
attr interpolationmode none
attr source queueingTime(packetPopped)
attr title "queueing times, vector"
attr unit s
vector 73 scenario.client4.ppp[0].ppp txPk:vector(packetBytes) ETV
attr interpolationmode none
attr source packetSentToLower
attr title "packets transmitted, vector(packetBytes)"
vector 74 scenario.client0.ppp[3].ppp rxPkOk:vector(packetBytes) ETV
attr interpolationmode none
attr source rxPkOk
attr title "packets received OK, vector(packetBytes)"
vector 75 scenario.client0.ppp[3].ppp passedUpPk:vector(packetBytes) ETV
attr interpolationmode none
attr source packetSentToUpper
attr title "packets passed to higher layer, vector(packetBytes)"
vector 76 scenario.client0.tcp.conn-0 rcvSeq:vector ETV
attr interpolationmode sample-hold
vector 77 scenario.client0.tcp.conn-0 rcvAck:vector ETV
attr interpolationmode sample-hold
vector 78 scenario.client0.tcp.conn-28 rcvAdv:vector ETV
attr interpolationmode sample-hold
vector 79 scenario.client0.tcp.conn-28 sndWnd:vector ETV
attr interpolationmode sample-hold
vector 80 scenario.client0.tcp.conn-28 tcpRcvQueueBytes:vector ETV
attr interpolationmode sample-hold
vector 81 scenario.client0.tcp.conn-28 rcvWnd:vector ETV
attr interpolationmode sample-hold
vector 82 scenario.client0.tcp.conn-28 sndAck:vector ETV
attr interpolationmode sample-hold
vector 83 scenario.client0.ppp[3].ppp rcvdPkFromHl:vector(packetBytes) ETV
attr interpolationmode none
attr source packetReceivedFromUpper
attr title "packets received from higher layer, vector(packetBytes)"
vector 84 scenario.client0.ppp[3].ppp.queue packetPushed:vector(packetBytes) ETV
attr interpolationmode none
attr title "packet pushed, vector(packetBytes)"
vector 85 scenario.client0.ppp[3].ppp.queue queueLength:vector ETV
attr interpolationmode sample-hold
attr source "count(packetPushed) - count(packetPopped) - count(packetRemoved) - count(packetDropped)"
attr title "queue length, vector"
vector 86 scenario.client0.ppp[3].ppp.queue packetPopped:vector(packetBytes) ETV
attr interpolationmode none
attr title "packet popped, vector(packetBytes)"
vector 87 scenario.client0.ppp[3].ppp.queue queueingTime:vector ETV
attr interpolationmode none
attr source queueingTime(packetPopped)
attr title "queueing times, vector"
attr unit s
vector 88 scenario.client0.ppp[3].ppp txPk:vector(packetBytes) ETV
attr interpolationmode none
attr source packetSentToLower
attr title "packets transmitted, vector(packetBytes)"
vector 89 scenario.client4.ppp[0].ppp rxPkOk:vector(packetBytes) ETV
attr interpolationmode none
attr source rxPkOk
attr title "packets received OK, vector(packetBytes)"
vector 90 scenario.client4.ppp[0].ppp passedUpPk:vector(packetBytes) ETV
attr interpolationmode none
attr source packetSentToUpper
attr title "packets passed to higher layer, vector(packetBytes)"
vector 91 scenario.client4.tcp.conn-27 rcvSeq:vector ETV
attr interpolationmode sample-hold
vector 92 scenario.client4.tcp.conn-27 rcvAck:vector ETV
attr interpolationmode sample-hold
vector 93 scenario.client4.tcp.conn-27 sndWnd:vector ETV
attr interpolationmode sample-hold
vector 94 scenario.client4.tcp.conn-27 unacked:vector ETV
attr interpolationmode sample-hold
vector 95 scenario.client0.tcp.conn-28 rcvSeq:vector ETV
attr interpolationmode sample-hold
vector 96 scenario.client0.tcp.conn-28 rcvAck:vector ETV
attr interpolationmode sample-hold
vector 97 scenario.client0.tcp.conn-28 unacked:vector ETV
attr interpolationmode sample-hold
vector 98 scenario.client0.tcp.conn-28 cwnd:vector ETV
attr interpolationmode sample-hold
vector 99 scenario.client0.tcp.conn-28 ssthresh:vector ETV
attr interpolationmode sample-hold
vector 100 scenario.client0.tcp.conn-28 dupAcks:vector ETV
attr interpolationmode sample-hold
vector 101 scenario.client4.tcp.conn-27 rtt:vector ETV
attr interpolationmode sample-hold
vector 102 scenario.client4.tcp.conn-27 srtt:vector ETV
attr interpolationmode sample-hold
vector 103 scenario.client4.tcp.conn-27 rttvar:vector ETV
attr interpolationmode sample-hold
vector 104 scenario.client4.tcp.conn-27 rto:vector ETV
attr interpolationmode sample-hold
vector 105 scenario.client4.tcp.conn-27 cwnd:vector ETV
attr interpolationmode sample-hold
vector 106 scenario.client4.tcp.conn-27 ssthresh:vector ETV
attr interpolationmode sample-hold
vector 107 scenario.client4.tcp.conn-27 dupAcks:vector ETV
attr interpolationmode sample-hold
vector 108 scenario.client0.tcp.conn-29 tcpRcvQueueBytes:vector ETV
attr interpolationmode sample-hold
vector 109 scenario.client0.tcp.conn-29 rcvAdv:vector ETV
attr interpolationmode sample-hold
vector 110 scenario.client0.tcp.conn-29 rcvWnd:vector ETV
attr interpolationmode sample-hold
vector 111 scenario.client0.tcp.conn-29 sndAck:vector ETV
attr interpolationmode sample-hold
vector 112 scenario.client4.tcp.conn-4 rcvSeq:vector ETV
attr interpolationmode sample-hold
vector 113 scenario.client4.tcp.conn-4 rcvAck:vector ETV
attr interpolationmode sample-hold
vector 114 scenario.client4.tcp.conn-30 rcvAdv:vector ETV
attr interpolationmode sample-hold
vector 115 scenario.client4.tcp.conn-30 sndWnd:vector ETV
attr interpolationmode sample-hold
vector 116 scenario.client4.tcp.conn-30 tcpRcvQueueBytes:vector ETV
attr interpolationmode sample-hold
vector 117 scenario.client4.tcp.conn-30 rcvWnd:vector ETV
attr interpolationmode sample-hold
vector 118 scenario.client4.tcp.conn-30 sndAck:vector ETV
attr interpolationmode sample-hold
vector 119 scenario.client0.tcp.conn-29 rcvSeq:vector ETV
attr interpolationmode sample-hold
vector 120 scenario.client0.tcp.conn-29 rcvAck:vector ETV
attr interpolationmode sample-hold
vector 121 scenario.client0.tcp.conn-29 sndWnd:vector ETV
attr interpolationmode sample-hold
vector 122 scenario.client0.tcp.conn-29 unacked:vector ETV
attr interpolationmode sample-hold
vector 123 scenario.client4.tcp.conn-30 rcvSeq:vector ETV
attr interpolationmode sample-hold
vector 124 scenario.client4.tcp.conn-30 rcvAck:vector ETV
attr interpolationmode sample-hold
vector 125 scenario.client4.tcp.conn-30 unacked:vector ETV
attr interpolationmode sample-hold
vector 126 scenario.client4.tcp.conn-30 cwnd:vector ETV
attr interpolationmode sample-hold
vector 127 scenario.client4.tcp.conn-30 ssthresh:vector ETV
attr interpolationmode sample-hold
vector 128 scenario.client4.tcp.conn-30 dupAcks:vector ETV
attr interpolationmode sample-hold
vector 129 scenario.client0.tcp.conn-29 rtt:vector ETV
attr interpolationmode sample-hold
vector 130 scenario.client0.tcp.conn-29 srtt:vector ETV
attr interpolationmode sample-hold
vector 131 scenario.client0.tcp.conn-29 rttvar:vector ETV
attr interpolationmode sample-hold
vector 132 scenario.client0.tcp.conn-29 rto:vector ETV
attr interpolationmode sample-hold
vector 133 scenario.client0.tcp.conn-29 cwnd:vector ETV
attr interpolationmode sample-hold
vector 134 scenario.client0.tcp.conn-29 ssthresh:vector ETV
attr interpolationmode sample-hold
vector 135 scenario.client0.tcp.conn-29 dupAcks:vector ETV
attr interpolationmode sample-hold
vector 136 scenario.client3.tcp.conn-31 tcpRcvQueueBytes:vector ETV
attr interpolationmode sample-hold
vector 137 scenario.client3.tcp.conn-31 rcvAdv:vector ETV
attr interpolationmode sample-hold
vector 138 scenario.client3.tcp.conn-31 rcvWnd:vector ETV
attr interpolationmode sample-hold
vector 139 scenario.client3.tcp.conn-31 sndAck:vector ETV
attr interpolationmode sample-hold
vector 140 scenario.client3.ppp[2].ppp rcvdPkFromHl:vector(packetBytes) ETV
attr interpolationmode none
attr source packetReceivedFromUpper
attr title "packets received from higher layer, vector(packetBytes)"
vector 141 scenario.client3.ppp[2].ppp.queue packetPushed:vector(packetBytes) ETV
attr interpolationmode none
attr title "packet pushed, vector(packetBytes)"
vector 142 scenario.client3.ppp[2].ppp.queue queueLength:vector ETV
attr interpolationmode sample-hold
attr source "count(packetPushed) - count(packetPopped) - count(packetRemoved) - count(packetDropped)"
attr title "queue length, vector"
vector 143 scenario.client3.ppp[2].ppp.queue packetPopped:vector(packetBytes) ETV
attr interpolationmode none
attr title "packet popped, vector(packetBytes)"
vector 144 scenario.client3.ppp[2].ppp.queue queueingTime:vector ETV
attr interpolationmode none
attr source queueingTime(packetPopped)
attr title "queueing times, vector"
attr unit s
vector 145 scenario.client3.ppp[2].ppp txPk:vector(packetBytes) ETV
attr interpolationmode none
attr source packetSentToLower
attr title "packets transmitted, vector(packetBytes)"
vector 146 scenario.client2.ppp[2].ppp rxPkOk:vector(packetBytes) ETV
attr interpolationmode none
attr source rxPkOk
attr title "packets received OK, vector(packetBytes)"
vector 147 scenario.client2.ppp[2].ppp passedUpPk:vector(packetBytes) ETV
attr interpolationmode none
attr source packetSentToUpper
attr title "packets passed to higher layer, vector(packetBytes)"
vector 148 scenario.client2.tcp.conn-32 rcvAdv:vector ETV
attr interpolationmode sample-hold
vector 149 scenario.client2.tcp.conn-32 sndWnd:vector ETV
attr interpolationmode sample-hold
vector 150 scenario.client2.tcp.conn-32 tcpRcvQueueBytes:vector ETV
attr interpolationmode sample-hold
vector 151 scenario.client2.tcp.conn-32 rcvWnd:vector ETV
attr interpolationmode sample-hold
vector 152 scenario.client2.tcp.conn-32 sndAck:vector ETV
attr interpolationmode sample-hold
vector 153 scenario.client2.ppp[2].ppp rcvdPkFromHl:vector(packetBytes) ETV
attr interpolationmode none
attr source packetReceivedFromUpper
attr title "packets received from higher layer, vector(packetBytes)"
vector 154 scenario.client2.ppp[2].ppp.queue packetPushed:vector(packetBytes) ETV
attr interpolationmode none
attr title "packet pushed, vector(packetBytes)"
vector 155 scenario.client2.ppp[2].ppp.queue queueLength:vector ETV
attr interpolationmode sample-hold
attr source "count(packetPushed) - count(packetPopped) - count(packetRemoved) - count(packetDropped)"
attr title "queue length, vector"
vector 156 scenario.client2.ppp[2].ppp.queue packetPopped:vector(packetBytes) ETV
attr interpolationmode none
attr title "packet popped, vector(packetBytes)"
vector 157 scenario.client2.ppp[2].ppp.queue queueingTime:vector ETV
attr interpolationmode none
attr source queueingTime(packetPopped)
attr title "queueing times, vector"
attr unit s
vector 158 scenario.client2.ppp[2].ppp txPk:vector(packetBytes) ETV
attr interpolationmode none
attr source packetSentToLower
attr title "packets transmitted, vector(packetBytes)"
vector 159 scenario.client3.ppp[2].ppp rxPkOk:vector(packetBytes) ETV
attr interpolationmode none
attr source rxPkOk
attr title "packets received OK, vector(packetBytes)"
vector 160 scenario.client3.ppp[2].ppp passedUpPk:vector(packetBytes) ETV
attr interpolationmode none
attr source packetSentToUpper
attr title "packets passed to higher layer, vector(packetBytes)"
vector 161 scenario.client3.tcp.conn-31 rcvSeq:vector ETV
attr interpolationmode sample-hold
vector 162 scenario.client3.tcp.conn-31 rcvAck:vector ETV
attr interpolationmode sample-hold
vector 163 scenario.client3.tcp.conn-31 sndWnd:vector ETV
attr interpolationmode sample-hold
vector 164 scenario.client3.tcp.conn-31 unacked:vector ETV
attr interpolationmode sample-hold
vector 165 scenario.client2.tcp.conn-32 rcvSeq:vector ETV
attr interpolationmode sample-hold
vector 166 scenario.client2.tcp.conn-32 rcvAck:vector ETV
attr interpolationmode sample-hold
vector 167 scenario.client2.tcp.conn-32 unacked:vector ETV
attr interpolationmode sample-hold
vector 168 scenario.client2.tcp.conn-32 cwnd:vector ETV
attr interpolationmode sample-hold
vector 169 scenario.client2.tcp.conn-32 ssthresh:vector ETV
attr interpolationmode sample-hold
vector 170 scenario.client2.tcp.conn-32 dupAcks:vector ETV
attr interpolationmode sample-hold
vector 171 scenario.client3.tcp.conn-31 rtt:vector ETV
attr interpolationmode sample-hold
vector 172 scenario.client3.tcp.conn-31 srtt:vector ETV
attr interpolationmode sample-hold
vector 173 scenario.client3.tcp.conn-31 rttvar:vector ETV
attr interpolationmode sample-hold
vector 174 scenario.client3.tcp.conn-31 rto:vector ETV
attr interpolationmode sample-hold
vector 175 scenario.client3.tcp.conn-31 cwnd:vector ETV
attr interpolationmode sample-hold
vector 176 scenario.client3.tcp.conn-31 ssthresh:vector ETV
attr interpolationmode sample-hold
vector 177 scenario.client3.tcp.conn-31 dupAcks:vector ETV
attr interpolationmode sample-hold
vector 178 scenario.client0.tcp.conn-33 tcpRcvQueueBytes:vector ETV
attr interpolationmode sample-hold
vector 179 scenario.client0.tcp.conn-33 rcvAdv:vector ETV
attr interpolationmode sample-hold
vector 180 scenario.client0.tcp.conn-33 rcvWnd:vector ETV
attr interpolationmode sample-hold
vector 181 scenario.client0.tcp.conn-33 sndAck:vector ETV
attr interpolationmode sample-hold
vector 182 scenario.client0.ppp[0].ppp rcvdPkFromHl:vector(packetBytes) ETV
attr interpolationmode none
attr source packetReceivedFromUpper
attr title "packets received from higher layer, vector(packetBytes)"
vector 183 scenario.client0.ppp[0].ppp.queue packetPushed:vector(packetBytes) ETV
attr interpolationmode none
attr title "packet pushed, vector(packetBytes)"
vector 184 scenario.client0.ppp[0].ppp.queue queueLength:vector ETV
attr interpolationmode sample-hold
attr source "count(packetPushed) - count(packetPopped) - count(packetRemoved) - count(packetDropped)"
attr title "queue length, vector"
vector 185 scenario.client0.ppp[0].ppp.queue packetPopped:vector(packetBytes) ETV
attr interpolationmode none
attr title "packet popped, vector(packetBytes)"
vector 186 scenario.client0.ppp[0].ppp.queue queueingTime:vector ETV
attr interpolationmode none
attr source queueingTime(packetPopped)
attr title "queueing times, vector"
attr unit s
vector 187 scenario.client0.ppp[0].ppp txPk:vector(packetBytes) ETV
attr interpolationmode none
attr source packetSentToLower
attr title "packets transmitted, vector(packetBytes)"
vector 188 scenario.client1.ppp[0].ppp rxPkOk:vector(packetBytes) ETV
attr interpolationmode none
attr source rxPkOk
attr title "packets received OK, vector(packetBytes)"
vector 189 scenario.client1.ppp[0].ppp passedUpPk:vector(packetBytes) ETV
attr interpolationmode none
attr source packetSentToUpper
attr title "packets passed to higher layer, vector(packetBytes)"
vector 190 scenario.client1.tcp.conn-1 rcvSeq:vector ETV
attr interpolationmode sample-hold
vector 191 scenario.client1.tcp.conn-1 rcvAck:vector ETV
attr interpolationmode sample-hold
vector 192 scenario.client1.tcp.conn-34 rcvAdv:vector ETV
attr interpolationmode sample-hold
vector 193 scenario.client1.tcp.conn-34 sndWnd:vector ETV
attr interpolationmode sample-hold
vector 194 scenario.client1.tcp.conn-34 tcpRcvQueueBytes:vector ETV
attr interpolationmode sample-hold
vector 195 scenario.client1.tcp.conn-34 rcvWnd:vector ETV
attr interpolationmode sample-hold
vector 196 scenario.client1.tcp.conn-34 sndAck:vector ETV
attr interpolationmode sample-hold
vector 197 scenario.client1.ppp[0].ppp rcvdPkFromHl:vector(packetBytes) ETV
attr interpolationmode none
attr source packetReceivedFromUpper
attr title "packets received from higher layer, vector(packetBytes)"
vector 198 scenario.client1.ppp[0].ppp.queue packetPushed:vector(packetBytes) ETV
attr interpolationmode none
attr title "packet pushed, vector(packetBytes)"
vector 199 scenario.client1.ppp[0].ppp.queue queueLength:vector ETV
attr interpolationmode sample-hold
attr source "count(packetPushed) - count(packetPopped) - count(packetRemoved) - count(packetDropped)"
attr title "queue length, vector"
vector 200 scenario.client1.ppp[0].ppp.queue packetPopped:vector(packetBytes) ETV
attr interpolationmode none
attr title "packet popped, vector(packetBytes)"
vector 201 scenario.client1.ppp[0].ppp.queue queueingTime:vector ETV
attr interpolationmode none
attr source queueingTime(packetPopped)
attr title "queueing times, vector"
attr unit s
vector 202 scenario.client1.ppp[0].ppp txPk:vector(packetBytes) ETV
attr interpolationmode none
attr source packetSentToLower
attr title "packets transmitted, vector(packetBytes)"
vector 203 scenario.client0.ppp[0].ppp rxPkOk:vector(packetBytes) ETV
attr interpolationmode none
attr source rxPkOk
attr title "packets received OK, vector(packetBytes)"
vector 204 scenario.client0.ppp[0].ppp passedUpPk:vector(packetBytes) ETV
attr interpolationmode none
attr source packetSentToUpper
attr title "packets passed to higher layer, vector(packetBytes)"
vector 205 scenario.client0.tcp.conn-33 rcvSeq:vector ETV
attr interpolationmode sample-hold
vector 206 scenario.client0.tcp.conn-33 rcvAck:vector ETV
attr interpolationmode sample-hold
vector 207 scenario.client0.tcp.conn-33 sndWnd:vector ETV
attr interpolationmode sample-hold
vector 208 scenario.client0.tcp.conn-33 unacked:vector ETV
attr interpolationmode sample-hold
vector 209 scenario.client1.tcp.conn-34 rcvSeq:vector ETV
attr interpolationmode sample-hold
vector 210 scenario.client1.tcp.conn-34 rcvAck:vector ETV
attr interpolationmode sample-hold
vector 211 scenario.client1.tcp.conn-34 unacked:vector ETV
attr interpolationmode sample-hold
vector 212 scenario.client1.tcp.conn-34 cwnd:vector ETV
attr interpolationmode sample-hold
vector 213 scenario.client1.tcp.conn-34 ssthresh:vector ETV
attr interpolationmode sample-hold
vector 214 scenario.client1.tcp.conn-34 dupAcks:vector ETV
attr interpolationmode sample-hold
vector 215 scenario.client0.tcp.conn-33 rtt:vector ETV
attr interpolationmode sample-hold
vector 216 scenario.client0.tcp.conn-33 srtt:vector ETV
attr interpolationmode sample-hold
vector 217 scenario.client0.tcp.conn-33 rttvar:vector ETV
attr interpolationmode sample-hold
vector 218 scenario.client0.tcp.conn-33 rto:vector ETV
attr interpolationmode sample-hold
vector 219 scenario.client0.tcp.conn-33 cwnd:vector ETV
attr interpolationmode sample-hold
vector 220 scenario.client0.tcp.conn-33 ssthresh:vector ETV
attr interpolationmode sample-hold
vector 221 scenario.client0.tcp.conn-33 dupAcks:vector ETV
attr interpolationmode sample-hold
vector 222 scenario.client2.tcp.conn-35 tcpRcvQueueBytes:vector ETV
attr interpolationmode sample-hold
vector 223 scenario.client2.tcp.conn-35 rcvAdv:vector ETV
attr interpolationmode sample-hold
vector 224 scenario.client2.tcp.conn-35 rcvWnd:vector ETV
attr interpolationmode sample-hold
vector 225 scenario.client2.tcp.conn-35 sndAck:vector ETV
attr interpolationmode sample-hold
vector 226 scenario.client4.tcp.conn-36 rcvAdv:vector ETV
attr interpolationmode sample-hold
vector 227 scenario.client4.tcp.conn-36 sndWnd:vector ETV
attr interpolationmode sample-hold
vector 228 scenario.client4.tcp.conn-36 tcpRcvQueueBytes:vector ETV
attr interpolationmode sample-hold
vector 229 scenario.client4.tcp.conn-36 rcvWnd:vector ETV
attr interpolationmode sample-hold
vector 230 scenario.client4.tcp.conn-36 sndAck:vector ETV
attr interpolationmode sample-hold
vector 231 scenario.client2.tcp.conn-35 rcvSeq:vector ETV
attr interpolationmode sample-hold
vector 232 scenario.client2.tcp.conn-35 rcvAck:vector ETV
attr interpolationmode sample-hold
vector 233 scenario.client2.tcp.conn-35 sndWnd:vector ETV
attr interpolationmode sample-hold
vector 234 scenario.client2.tcp.conn-35 unacked:vector ETV
attr interpolationmode sample-hold
vector 235 scenario.client4.tcp.conn-36 rcvSeq:vector ETV
attr interpolationmode sample-hold
vector 236 scenario.client4.tcp.conn-36 rcvAck:vector ETV
attr interpolationmode sample-hold
vector 237 scenario.client4.tcp.conn-36 unacked:vector ETV
attr interpolationmode sample-hold
vector 238 scenario.client4.tcp.conn-36 cwnd:vector ETV
attr interpolationmode sample-hold
vector 239 scenario.client4.tcp.conn-36 ssthresh:vector ETV
attr interpolationmode sample-hold
vector 240 scenario.client4.tcp.conn-36 dupAcks:vector ETV
attr interpolationmode sample-hold
vector 241 scenario.client2.tcp.conn-35 rtt:vector ETV
attr interpolationmode sample-hold
vector 242 scenario.client2.tcp.conn-35 srtt:vector ETV
attr interpolationmode sample-hold
vector 243 scenario.client2.tcp.conn-35 rttvar:vector ETV
attr interpolationmode sample-hold
vector 244 scenario.client2.tcp.conn-35 rto:vector ETV
attr interpolationmode sample-hold
vector 245 scenario.client2.tcp.conn-35 cwnd:vector ETV
attr interpolationmode sample-hold
vector 246 scenario.client2.tcp.conn-35 ssthresh:vector ETV
attr interpolationmode sample-hold
vector 247 scenario.client2.tcp.conn-35 dupAcks:vector ETV
attr interpolationmode sample-hold
vector 248 scenario.client4.tcp.conn-37 tcpRcvQueueBytes:vector ETV
attr interpolationmode sample-hold
vector 249 scenario.client4.tcp.conn-37 rcvAdv:vector ETV
attr interpolationmode sample-hold
vector 250 scenario.client4.tcp.conn-37 rcvWnd:vector ETV
attr interpolationmode sample-hold
vector 251 scenario.client4.tcp.conn-37 sndAck:vector ETV
attr interpolationmode sample-hold
vector 252 scenario.client4.ppp[1].ppp rcvdPkFromHl:vector(packetBytes) ETV
attr interpolationmode none
attr source packetReceivedFromUpper
attr title "packets received from higher layer, vector(packetBytes)"
vector 253 scenario.client4.ppp[1].ppp.queue packetPushed:vector(packetBytes) ETV
attr interpolationmode none
attr title "packet pushed, vector(packetBytes)"
vector 254 scenario.client4.ppp[1].ppp.queue queueLength:vector ETV
attr interpolationmode sample-hold
attr source "count(packetPushed) - count(packetPopped) - count(packetRemoved) - count(packetDropped)"
attr title "queue length, vector"
vector 255 scenario.client4.ppp[1].ppp.queue packetPopped:vector(packetBytes) ETV
attr interpolationmode none
attr title "packet popped, vector(packetBytes)"
vector 256 scenario.client4.ppp[1].ppp.queue queueingTime:vector ETV
attr interpolationmode none
attr source queueingTime(packetPopped)
attr title "queueing times, vector"
attr unit s
vector 257 scenario.client4.ppp[1].ppp txPk:vector(packetBytes) ETV
attr interpolationmode none
attr source packetSentToLower
attr title "packets transmitted, vector(packetBytes)"
vector 258 scenario.client1.ppp[3].ppp rxPkOk:vector(packetBytes) ETV
attr interpolationmode none
attr source rxPkOk
attr title "packets received OK, vector(packetBytes)"
vector 259 scenario.client1.ppp[3].ppp passedUpPk:vector(packetBytes) ETV
attr interpolationmode none
attr source packetSentToUpper
attr title "packets passed to higher layer, vector(packetBytes)"
vector 260 scenario.client1.tcp.conn-38 rcvAdv:vector ETV
attr interpolationmode sample-hold
vector 261 scenario.client1.tcp.conn-38 sndWnd:vector ETV
attr interpolationmode sample-hold
vector 262 scenario.client1.tcp.conn-38 tcpRcvQueueBytes:vector ETV
attr interpolationmode sample-hold
vector 263 scenario.client1.tcp.conn-38 rcvWnd:vector ETV
attr interpolationmode sample-hold
vector 264 scenario.client1.tcp.conn-38 sndAck:vector ETV
attr interpolationmode sample-hold
vector 265 scenario.client1.ppp[3].ppp rcvdPkFromHl:vector(packetBytes) ETV
attr interpolationmode none
attr source packetReceivedFromUpper
attr title "packets received from higher layer, vector(packetBytes)"
vector 266 scenario.client1.ppp[3].ppp.queue packetPushed:vector(packetBytes) ETV
attr interpolationmode none
attr title "packet pushed, vector(packetBytes)"
vector 267 scenario.client1.ppp[3].ppp.queue queueLength:vector ETV
attr interpolationmode sample-hold
attr source "count(packetPushed) - count(packetPopped) - count(packetRemoved) - count(packetDropped)"
attr title "queue length, vector"
vector 268 scenario.client1.ppp[3].ppp.queue packetPopped:vector(packetBytes) ETV
attr interpolationmode none
attr title "packet popped, vector(packetBytes)"
vector 269 scenario.client1.ppp[3].ppp.queue queueingTime:vector ETV
attr interpolationmode none
attr source queueingTime(packetPopped)
attr title "queueing times, vector"
attr unit s
vector 270 scenario.client1.ppp[3].ppp txPk:vector(packetBytes) ETV
attr interpolationmode none
attr source packetSentToLower
attr title "packets transmitted, vector(packetBytes)"
vector 271 scenario.client4.ppp[1].ppp rxPkOk:vector(packetBytes) ETV
attr interpolationmode none
attr source rxPkOk
attr title "packets received OK, vector(packetBytes)"
vector 272 scenario.client4.ppp[1].ppp passedUpPk:vector(packetBytes) ETV
attr interpolationmode none
attr source packetSentToUpper
attr title "packets passed to higher layer, vector(packetBytes)"
vector 273 scenario.client4.tcp.conn-37 rcvSeq:vector ETV
attr interpolationmode sample-hold
vector 274 scenario.client4.tcp.conn-37 rcvAck:vector ETV
attr interpolationmode sample-hold
vector 275 scenario.client4.tcp.conn-37 sndWnd:vector ETV
attr interpolationmode sample-hold
vector 276 scenario.client4.tcp.conn-37 unacked:vector ETV
attr interpolationmode sample-hold
vector 277 scenario.client1.tcp.conn-38 rcvSeq:vector ETV
attr interpolationmode sample-hold
vector 278 scenario.client1.tcp.conn-38 rcvAck:vector ETV
attr interpolationmode sample-hold
vector 279 scenario.client1.tcp.conn-38 unacked:vector ETV
attr interpolationmode sample-hold
vector 280 scenario.client1.tcp.conn-38 cwnd:vector ETV
attr interpolationmode sample-hold
vector 281 scenario.client1.tcp.conn-38 ssthresh:vector ETV
attr interpolationmode sample-hold
vector 282 scenario.client1.tcp.conn-38 dupAcks:vector ETV
attr interpolationmode sample-hold
vector 283 scenario.client4.tcp.conn-37 rtt:vector ETV
attr interpolationmode sample-hold
vector 284 scenario.client4.tcp.conn-37 srtt:vector ETV
attr interpolationmode sample-hold
vector 285 scenario.client4.tcp.conn-37 rttvar:vector ETV
attr interpolationmode sample-hold
vector 286 scenario.client4.tcp.conn-37 rto:vector ETV
attr interpolationmode sample-hold
vector 287 scenario.client4.tcp.conn-37 cwnd:vector ETV
attr interpolationmode sample-hold
vector 288 scenario.client4.tcp.conn-37 ssthresh:vector ETV
attr interpolationmode sample-hold
vector 289 scenario.client4.tcp.conn-37 dupAcks:vector ETV
attr interpolationmode sample-hold
vector 290 scenario.client3.tcp.conn-39 tcpRcvQueueBytes:vector ETV
attr interpolationmode sample-hold
vector 291 scenario.client3.tcp.conn-39 rcvAdv:vector ETV
attr interpolationmode sample-hold
vector 292 scenario.client3.tcp.conn-39 rcvWnd:vector ETV
attr interpolationmode sample-hold
vector 293 scenario.client3.tcp.conn-39 sndAck:vector ETV
attr interpolationmode sample-hold
vector 294 scenario.client3.ppp[1].ppp rcvdPkFromHl:vector(packetBytes) ETV
attr interpolationmode none
attr source packetReceivedFromUpper
attr title "packets received from higher layer, vector(packetBytes)"
vector 295 scenario.client3.ppp[1].ppp.queue packetPushed:vector(packetBytes) ETV
attr interpolationmode none
attr title "packet pushed, vector(packetBytes)"
vector 296 scenario.client3.ppp[1].ppp.queue queueLength:vector ETV
attr interpolationmode sample-hold
attr source "count(packetPushed) - count(packetPopped) - count(packetRemoved) - count(packetDropped)"
attr title "queue length, vector"
vector 297 scenario.client3.ppp[1].ppp.queue packetPopped:vector(packetBytes) ETV
attr interpolationmode none
attr title "packet popped, vector(packetBytes)"
vector 298 scenario.client3.ppp[1].ppp.queue queueingTime:vector ETV
attr interpolationmode none
attr source queueingTime(packetPopped)
attr title "queueing times, vector"
attr unit s
vector 299 scenario.client3.ppp[1].ppp txPk:vector(packetBytes) ETV
attr interpolationmode none
attr source packetSentToLower
attr title "packets transmitted, vector(packetBytes)"
vector 300 scenario.client1.ppp[2].ppp rxPkOk:vector(packetBytes) ETV
attr interpolationmode none
attr source rxPkOk
attr title "packets received OK, vector(packetBytes)"
vector 301 scenario.client1.ppp[2].ppp passedUpPk:vector(packetBytes) ETV
attr interpolationmode none
attr source packetSentToUpper
attr title "packets passed to higher layer, vector(packetBytes)"
vector 302 scenario.client1.tcp.conn-40 rcvAdv:vector ETV
attr interpolationmode sample-hold
vector 303 scenario.client1.tcp.conn-40 sndWnd:vector ETV
attr interpolationmode sample-hold
vector 304 scenario.client1.tcp.conn-40 tcpRcvQueueBytes:vector ETV
attr interpolationmode sample-hold
vector 305 scenario.client1.tcp.conn-40 rcvWnd:vector ETV
attr interpolationmode sample-hold
vector 306 scenario.client1.tcp.conn-40 sndAck:vector ETV
attr interpolationmode sample-hold
vector 307 scenario.client1.ppp[2].ppp rcvdPkFromHl:vector(packetBytes) ETV
attr interpolationmode none
attr source packetReceivedFromUpper
attr title "packets received from higher layer, vector(packetBytes)"
vector 308 scenario.client1.ppp[2].ppp.queue packetPushed:vector(packetBytes) ETV
attr interpolationmode none
attr title "packet pushed, vector(packetBytes)"
vector 309 scenario.client1.ppp[2].ppp.queue queueLength:vector ETV
attr interpolationmode sample-hold
attr source "count(packetPushed) - count(packetPopped) - count(packetRemoved) - count(packetDropped)"
attr title "queue length, vector"
vector 310 scenario.client1.ppp[2].ppp.queue packetPopped:vector(packetBytes) ETV
attr interpolationmode none
attr title "packet popped, vector(packetBytes)"
vector 311 scenario.client1.ppp[2].ppp.queue queueingTime:vector ETV
attr interpolationmode none
attr source queueingTime(packetPopped)
attr title "queueing times, vector"
attr unit s
vector 312 scenario.client1.ppp[2].ppp txPk:vector(packetBytes) ETV
attr interpolationmode none
attr source packetSentToLower
attr title "packets transmitted, vector(packetBytes)"
vector 313 scenario.client3.ppp[1].ppp rxPkOk:vector(packetBytes) ETV
attr interpolationmode none
attr source rxPkOk
attr title "packets received OK, vector(packetBytes)"
vector 314 scenario.client3.ppp[1].ppp passedUpPk:vector(packetBytes) ETV
attr interpolationmode none
attr source packetSentToUpper
attr title "packets passed to higher layer, vector(packetBytes)"
vector 315 scenario.client3.tcp.conn-39 rcvSeq:vector ETV
attr interpolationmode sample-hold
vector 316 scenario.client3.tcp.conn-39 rcvAck:vector ETV
attr interpolationmode sample-hold
vector 317 scenario.client3.tcp.conn-39 sndWnd:vector ETV
attr interpolationmode sample-hold
vector 318 scenario.client3.tcp.conn-39 unacked:vector ETV
attr interpolationmode sample-hold
vector 319 scenario.client1.tcp.conn-40 rcvSeq:vector ETV
attr interpolationmode sample-hold
vector 320 scenario.client1.tcp.conn-40 rcvAck:vector ETV
attr interpolationmode sample-hold
vector 321 scenario.client1.tcp.conn-40 unacked:vector ETV
attr interpolationmode sample-hold
vector 322 scenario.client1.tcp.conn-40 cwnd:vector ETV
attr interpolationmode sample-hold
vector 323 scenario.client1.tcp.conn-40 ssthresh:vector ETV
attr interpolationmode sample-hold
vector 324 scenario.client1.tcp.conn-40 dupAcks:vector ETV
attr interpolationmode sample-hold
vector 325 scenario.client3.tcp.conn-39 rtt:vector ETV
attr interpolationmode sample-hold
vector 326 scenario.client3.tcp.conn-39 srtt:vector ETV
attr interpolationmode sample-hold
vector 327 scenario.client3.tcp.conn-39 rttvar:vector ETV
attr interpolationmode sample-hold
vector 328 scenario.client3.tcp.conn-39 rto:vector ETV
attr interpolationmode sample-hold
vector 329 scenario.client3.tcp.conn-39 cwnd:vector ETV
attr interpolationmode sample-hold
vector 330 scenario.client3.tcp.conn-39 ssthresh:vector ETV
attr interpolationmode sample-hold
vector 331 scenario.client3.tcp.conn-39 dupAcks:vector ETV
attr interpolationmode sample-hold
vector 332 scenario.client1.tcp.conn-41 tcpRcvQueueBytes:vector ETV
attr interpolationmode sample-hold
vector 333 scenario.client1.tcp.conn-41 rcvAdv:vector ETV
attr interpolationmode sample-hold
vector 334 scenario.client1.tcp.conn-41 rcvWnd:vector ETV
attr interpolationmode sample-hold
vector 335 scenario.client1.tcp.conn-41 sndAck:vector ETV
attr interpolationmode sample-hold
vector 336 scenario.client3.tcp.conn-3 rcvSeq:vector ETV
attr interpolationmode sample-hold
vector 337 scenario.client3.tcp.conn-3 rcvAck:vector ETV
attr interpolationmode sample-hold
vector 338 scenario.client3.tcp.conn-42 rcvAdv:vector ETV
attr interpolationmode sample-hold
vector 339 scenario.client3.tcp.conn-42 sndWnd:vector ETV
attr interpolationmode sample-hold
vector 340 scenario.client3.tcp.conn-42 tcpRcvQueueBytes:vector ETV
attr interpolationmode sample-hold
vector 341 scenario.client3.tcp.conn-42 rcvWnd:vector ETV
attr interpolationmode sample-hold
vector 342 scenario.client3.tcp.conn-42 sndAck:vector ETV
attr interpolationmode sample-hold
vector 343 scenario.client1.tcp.conn-41 rcvSeq:vector ETV
attr interpolationmode sample-hold
vector 344 scenario.client1.tcp.conn-41 rcvAck:vector ETV
attr interpolationmode sample-hold
vector 345 scenario.client1.tcp.conn-41 sndWnd:vector ETV
attr interpolationmode sample-hold
vector 346 scenario.client1.tcp.conn-41 unacked:vector ETV
attr interpolationmode sample-hold
vector 347 scenario.client3.tcp.conn-42 rcvSeq:vector ETV
attr interpolationmode sample-hold
vector 348 scenario.client3.tcp.conn-42 rcvAck:vector ETV
attr interpolationmode sample-hold
vector 349 scenario.client3.tcp.conn-42 unacked:vector ETV
attr interpolationmode sample-hold
vector 350 scenario.client3.tcp.conn-42 cwnd:vector ETV
attr interpolationmode sample-hold
vector 351 scenario.client3.tcp.conn-42 ssthresh:vector ETV
attr interpolationmode sample-hold
vector 352 scenario.client3.tcp.conn-42 dupAcks:vector ETV
attr interpolationmode sample-hold
vector 353 scenario.client1.tcp.conn-41 rtt:vector ETV
attr interpolationmode sample-hold
vector 354 scenario.client1.tcp.conn-41 srtt:vector ETV
attr interpolationmode sample-hold
vector 355 scenario.client1.tcp.conn-41 rttvar:vector ETV
attr interpolationmode sample-hold
vector 356 scenario.client1.tcp.conn-41 rto:vector ETV
attr interpolationmode sample-hold
vector 357 scenario.client1.tcp.conn-41 cwnd:vector ETV
attr interpolationmode sample-hold
vector 358 scenario.client1.tcp.conn-41 ssthresh:vector ETV
attr interpolationmode sample-hold
vector 359 scenario.client1.tcp.conn-41 dupAcks:vector ETV
attr interpolationmode sample-hold
vector 360 scenario.client2.tcp.conn-43 tcpRcvQueueBytes:vector ETV
attr interpolationmode sample-hold
vector 361 scenario.client2.tcp.conn-43 rcvAdv:vector ETV
attr interpolationmode sample-hold
vector 362 scenario.client2.tcp.conn-43 rcvWnd:vector ETV
attr interpolationmode sample-hold
vector 363 scenario.client2.tcp.conn-43 sndAck:vector ETV
attr interpolationmode sample-hold
vector 364 scenario.client3.tcp.conn-44 rcvAdv:vector ETV
attr interpolationmode sample-hold
vector 365 scenario.client3.tcp.conn-44 sndWnd:vector ETV
attr interpolationmode sample-hold
vector 366 scenario.client3.tcp.conn-44 tcpRcvQueueBytes:vector ETV
attr interpolationmode sample-hold
vector 367 scenario.client3.tcp.conn-44 rcvWnd:vector ETV
attr interpolationmode sample-hold
vector 368 scenario.client3.tcp.conn-44 sndAck:vector ETV
attr interpolationmode sample-hold
vector 369 scenario.client2.tcp.conn-43 rcvSeq:vector ETV
attr interpolationmode sample-hold
vector 370 scenario.client2.tcp.conn-43 rcvAck:vector ETV
attr interpolationmode sample-hold
vector 371 scenario.client2.tcp.conn-43 sndWnd:vector ETV
attr interpolationmode sample-hold
vector 372 scenario.client2.tcp.conn-43 unacked:vector ETV
attr interpolationmode sample-hold
vector 373 scenario.client3.tcp.conn-44 rcvSeq:vector ETV
attr interpolationmode sample-hold
vector 374 scenario.client3.tcp.conn-44 rcvAck:vector ETV
attr interpolationmode sample-hold
vector 375 scenario.client3.tcp.conn-44 unacked:vector ETV
attr interpolationmode sample-hold
vector 376 scenario.client3.tcp.conn-44 cwnd:vector ETV
attr interpolationmode sample-hold
vector 377 scenario.client3.tcp.conn-44 ssthresh:vector ETV
attr interpolationmode sample-hold
vector 378 scenario.client3.tcp.conn-44 dupAcks:vector ETV
attr interpolationmode sample-hold
vector 379 scenario.client2.tcp.conn-43 rtt:vector ETV
attr interpolationmode sample-hold
vector 380 scenario.client2.tcp.conn-43 srtt:vector ETV
attr interpolationmode sample-hold
vector 381 scenario.client2.tcp.conn-43 rttvar:vector ETV
attr interpolationmode sample-hold
vector 382 scenario.client2.tcp.conn-43 rto:vector ETV
attr interpolationmode sample-hold
vector 383 scenario.client2.tcp.conn-43 cwnd:vector ETV
attr interpolationmode sample-hold
vector 384 scenario.client2.tcp.conn-43 ssthresh:vector ETV
attr interpolationmode sample-hold
vector 385 scenario.client2.tcp.conn-43 dupAcks:vector ETV
attr interpolationmode sample-hold
vector 386 scenario.client3.tcp.conn-45 tcpRcvQueueBytes:vector ETV
attr interpolationmode sample-hold
vector 387 scenario.client3.tcp.conn-45 rcvAdv:vector ETV
attr interpolationmode sample-hold
vector 388 scenario.client3.tcp.conn-45 rcvWnd:vector ETV
attr interpolationmode sample-hold
vector 389 scenario.client3.tcp.conn-45 sndAck:vector ETV
attr interpolationmode sample-hold
vector 390 scenario.client3.ppp[0].ppp rcvdPkFromHl:vector(packetBytes) ETV
attr interpolationmode none
attr source packetReceivedFromUpper
attr title "packets received from higher layer, vector(packetBytes)"
vector 391 scenario.client3.ppp[0].ppp.queue packetPushed:vector(packetBytes) ETV
attr interpolationmode none
attr title "packet pushed, vector(packetBytes)"
vector 392 scenario.client3.ppp[0].ppp.queue queueLength:vector ETV
attr interpolationmode sample-hold
attr source "count(packetPushed) - count(packetPopped) - count(packetRemoved) - count(packetDropped)"
attr title "queue length, vector"
vector 393 scenario.client3.ppp[0].ppp.queue packetPopped:vector(packetBytes) ETV
attr interpolationmode none
attr title "packet popped, vector(packetBytes)"
vector 394 scenario.client3.ppp[0].ppp.queue queueingTime:vector ETV
attr interpolationmode none
attr source queueingTime(packetPopped)
attr title "queueing times, vector"
attr unit s
vector 395 scenario.client3.ppp[0].ppp txPk:vector(packetBytes) ETV
attr interpolationmode none
attr source packetSentToLower
attr title "packets transmitted, vector(packetBytes)"
vector 396 scenario.client0.ppp[2].ppp rxPkOk:vector(packetBytes) ETV
attr interpolationmode none
attr source rxPkOk
attr title "packets received OK, vector(packetBytes)"
vector 397 scenario.client0.ppp[2].ppp passedUpPk:vector(packetBytes) ETV
attr interpolationmode none
attr source packetSentToUpper
attr title "packets passed to higher layer, vector(packetBytes)"
vector 398 scenario.client0.tcp.conn-46 rcvAdv:vector ETV
attr interpolationmode sample-hold
vector 399 scenario.client0.tcp.conn-46 sndWnd:vector ETV
attr interpolationmode sample-hold
vector 400 scenario.client0.tcp.conn-46 tcpRcvQueueBytes:vector ETV
attr interpolationmode sample-hold
vector 401 scenario.client0.tcp.conn-46 rcvWnd:vector ETV
attr interpolationmode sample-hold
vector 402 scenario.client0.tcp.conn-46 sndAck:vector ETV
attr interpolationmode sample-hold
vector 403 scenario.client0.ppp[2].ppp rcvdPkFromHl:vector(packetBytes) ETV
attr interpolationmode none
attr source packetReceivedFromUpper
attr title "packets received from higher layer, vector(packetBytes)"
vector 404 scenario.client0.ppp[2].ppp.queue packetPushed:vector(packetBytes) ETV
attr interpolationmode none
attr title "packet pushed, vector(packetBytes)"
vector 405 scenario.client0.ppp[2].ppp.queue queueLength:vector ETV
attr interpolationmode sample-hold
attr source "count(packetPushed) - count(packetPopped) - count(packetRemoved) - count(packetDropped)"
attr title "queue length, vector"
vector 406 scenario.client0.ppp[2].ppp.queue packetPopped:vector(packetBytes) ETV
attr interpolationmode none
attr title "packet popped, vector(packetBytes)"
vector 407 scenario.client0.ppp[2].ppp.queue queueingTime:vector ETV
attr interpolationmode none
attr source queueingTime(packetPopped)
attr title "queueing times, vector"
attr unit s
vector 408 scenario.client0.ppp[2].ppp txPk:vector(packetBytes) ETV
attr interpolationmode none
attr source packetSentToLower
attr title "packets transmitted, vector(packetBytes)"
vector 409 scenario.client3.ppp[0].ppp rxPkOk:vector(packetBytes) ETV
attr interpolationmode none
attr source rxPkOk
attr title "packets received OK, vector(packetBytes)"
vector 410 scenario.client3.ppp[0].ppp passedUpPk:vector(packetBytes) ETV
attr interpolationmode none
attr source packetSentToUpper
attr title "packets passed to higher layer, vector(packetBytes)"
vector 411 scenario.client3.tcp.conn-45 rcvSeq:vector ETV
attr interpolationmode sample-hold
vector 412 scenario.client3.tcp.conn-45 rcvAck:vector ETV
attr interpolationmode sample-hold
vector 413 scenario.client3.tcp.conn-45 sndWnd:vector ETV
attr interpolationmode sample-hold
vector 414 scenario.client3.tcp.conn-45 unacked:vector ETV
attr interpolationmode sample-hold
vector 415 scenario.client0.tcp.conn-46 rcvSeq:vector ETV
attr interpolationmode sample-hold
vector 416 scenario.client0.tcp.conn-46 rcvAck:vector ETV
attr interpolationmode sample-hold
vector 417 scenario.client0.tcp.conn-46 unacked:vector ETV
attr interpolationmode sample-hold
vector 418 scenario.client0.tcp.conn-46 cwnd:vector ETV
attr interpolationmode sample-hold
vector 419 scenario.client0.tcp.conn-46 ssthresh:vector ETV
attr interpolationmode sample-hold
vector 420 scenario.client0.tcp.conn-46 dupAcks:vector ETV
attr interpolationmode sample-hold
vector 421 scenario.client1.tcp.conn-47 tcpRcvQueueBytes:vector ETV
attr interpolationmode sample-hold
vector 422 scenario.client1.tcp.conn-47 rcvAdv:vector ETV
attr interpolationmode sample-hold
vector 423 scenario.client1.tcp.conn-47 rcvWnd:vector ETV
attr interpolationmode sample-hold
vector 424 scenario.client1.tcp.conn-47 sndAck:vector ETV
attr interpolationmode sample-hold
vector 425 scenario.client3.tcp.conn-45 rtt:vector ETV
attr interpolationmode sample-hold
vector 426 scenario.client3.tcp.conn-45 srtt:vector ETV
attr interpolationmode sample-hold
vector 427 scenario.client3.tcp.conn-45 rttvar:vector ETV
attr interpolationmode sample-hold
vector 428 scenario.client3.tcp.conn-45 rto:vector ETV
attr interpolationmode sample-hold
vector 429 scenario.client3.tcp.conn-45 cwnd:vector ETV
attr interpolationmode sample-hold
vector 430 scenario.client3.tcp.conn-45 ssthresh:vector ETV
attr interpolationmode sample-hold
vector 431 scenario.client3.tcp.conn-45 dupAcks:vector ETV
attr interpolationmode sample-hold
vector 432 scenario.client4.tcp.conn-48 rcvAdv:vector ETV
attr interpolationmode sample-hold
vector 433 scenario.client4.tcp.conn-48 sndWnd:vector ETV
attr interpolationmode sample-hold
vector 434 scenario.client4.tcp.conn-48 tcpRcvQueueBytes:vector ETV
attr interpolationmode sample-hold
vector 435 scenario.client4.tcp.conn-48 rcvWnd:vector ETV
attr interpolationmode sample-hold
vector 436 scenario.client4.tcp.conn-48 sndAck:vector ETV
attr interpolationmode sample-hold
vector 437 scenario.client1.tcp.conn-47 rcvSeq:vector ETV
attr interpolationmode sample-hold
vector 438 scenario.client1.tcp.conn-47 rcvAck:vector ETV
attr interpolationmode sample-hold
vector 439 scenario.client1.tcp.conn-47 sndWnd:vector ETV
attr interpolationmode sample-hold
vector 440 scenario.client1.tcp.conn-47 unacked:vector ETV
attr interpolationmode sample-hold
vector 441 scenario.client4.tcp.conn-48 rcvSeq:vector ETV
attr interpolationmode sample-hold
vector 442 scenario.client4.tcp.conn-48 rcvAck:vector ETV
attr interpolationmode sample-hold
vector 443 scenario.client4.tcp.conn-48 unacked:vector ETV
attr interpolationmode sample-hold
vector 444 scenario.client4.tcp.conn-48 cwnd:vector ETV
attr interpolationmode sample-hold
vector 445 scenario.client4.tcp.conn-48 ssthresh:vector ETV
attr interpolationmode sample-hold
vector 446 scenario.client4.tcp.conn-48 dupAcks:vector ETV
attr interpolationmode sample-hold
vector 447 scenario.client1.tcp.conn-47 rtt:vector ETV
attr interpolationmode sample-hold
vector 448 scenario.client1.tcp.conn-47 srtt:vector ETV
attr interpolationmode sample-hold
vector 449 scenario.client1.tcp.conn-47 rttvar:vector ETV
attr interpolationmode sample-hold
vector 450 scenario.client1.tcp.conn-47 rto:vector ETV
attr interpolationmode sample-hold
vector 451 scenario.client1.tcp.conn-47 cwnd:vector ETV
attr interpolationmode sample-hold
vector 452 scenario.client1.tcp.conn-47 ssthresh:vector ETV
attr interpolationmode sample-hold
vector 453 scenario.client1.tcp.conn-47 dupAcks:vector ETV
attr interpolationmode sample-hold
vector 454 scenario.client0.tcp.conn-49 tcpRcvQueueBytes:vector ETV
attr interpolationmode sample-hold
vector 455 scenario.client0.tcp.conn-49 rcvAdv:vector ETV
attr interpolationmode sample-hold
vector 456 scenario.client0.tcp.conn-49 rcvWnd:vector ETV
attr interpolationmode sample-hold
vector 457 scenario.client0.tcp.conn-49 sndAck:vector ETV
attr interpolationmode sample-hold
vector 458 scenario.client0.ppp[1].ppp rcvdPkFromHl:vector(packetBytes) ETV
attr interpolationmode none
attr source packetReceivedFromUpper
attr title "packets received from higher layer, vector(packetBytes)"
vector 459 scenario.client0.ppp[1].ppp.queue packetPushed:vector(packetBytes) ETV
attr interpolationmode none
attr title "packet pushed, vector(packetBytes)"
vector 460 scenario.client0.ppp[1].ppp.queue queueLength:vector ETV
attr interpolationmode sample-hold
attr source "count(packetPushed) - count(packetPopped) - count(packetRemoved) - count(packetDropped)"
attr title "queue length, vector"
vector 461 scenario.client0.ppp[1].ppp.queue packetPopped:vector(packetBytes) ETV
attr interpolationmode none
attr title "packet popped, vector(packetBytes)"
vector 462 scenario.client0.ppp[1].ppp.queue queueingTime:vector ETV
attr interpolationmode none
attr source queueingTime(packetPopped)
attr title "queueing times, vector"
attr unit s
vector 463 scenario.client0.ppp[1].ppp txPk:vector(packetBytes) ETV
attr interpolationmode none
attr source packetSentToLower
attr title "packets transmitted, vector(packetBytes)"
vector 464 scenario.client2.ppp[0].ppp rxPkOk:vector(packetBytes) ETV
attr interpolationmode none
attr source rxPkOk
attr title "packets received OK, vector(packetBytes)"
vector 465 scenario.client2.ppp[0].ppp passedUpPk:vector(packetBytes) ETV
attr interpolationmode none
attr source packetSentToUpper
attr title "packets passed to higher layer, vector(packetBytes)"
vector 466 scenario.client2.tcp.conn-50 rcvAdv:vector ETV
attr interpolationmode sample-hold
vector 467 scenario.client2.tcp.conn-50 sndWnd:vector ETV
attr interpolationmode sample-hold
vector 468 scenario.client2.tcp.conn-50 tcpRcvQueueBytes:vector ETV
attr interpolationmode sample-hold
vector 469 scenario.client2.tcp.conn-50 rcvWnd:vector ETV
attr interpolationmode sample-hold
vector 470 scenario.client2.tcp.conn-50 sndAck:vector ETV
attr interpolationmode sample-hold
vector 471 scenario.client2.ppp[0].ppp rcvdPkFromHl:vector(packetBytes) ETV
attr interpolationmode none
attr source packetReceivedFromUpper
attr title "packets received from higher layer, vector(packetBytes)"
vector 472 scenario.client2.ppp[0].ppp.queue packetPushed:vector(packetBytes) ETV
attr interpolationmode none
attr title "packet pushed, vector(packetBytes)"
vector 473 scenario.client2.ppp[0].ppp.queue queueLength:vector ETV
attr interpolationmode sample-hold
attr source "count(packetPushed) - count(packetPopped) - count(packetRemoved) - count(packetDropped)"
attr title "queue length, vector"
vector 474 scenario.client2.ppp[0].ppp.queue packetPopped:vector(packetBytes) ETV
attr interpolationmode none
attr title "packet popped, vector(packetBytes)"
vector 475 scenario.client2.ppp[0].ppp.queue queueingTime:vector ETV
attr interpolationmode none
attr source queueingTime(packetPopped)
attr title "queueing times, vector"
attr unit s
vector 476 scenario.client2.ppp[0].ppp txPk:vector(packetBytes) ETV
attr interpolationmode none
attr source packetSentToLower
attr title "packets transmitted, vector(packetBytes)"
vector 477 scenario.client0.ppp[1].ppp rxPkOk:vector(packetBytes) ETV
attr interpolationmode none
attr source rxPkOk
attr title "packets received OK, vector(packetBytes)"
vector 478 scenario.client0.ppp[1].ppp passedUpPk:vector(packetBytes) ETV
attr interpolationmode none
attr source packetSentToUpper
attr title "packets passed to higher layer, vector(packetBytes)"
vector 479 scenario.client0.tcp.conn-49 rcvSeq:vector ETV
attr interpolationmode sample-hold
vector 480 scenario.client0.tcp.conn-49 rcvAck:vector ETV
attr interpolationmode sample-hold
vector 481 scenario.client0.tcp.conn-49 sndWnd:vector ETV
attr interpolationmode sample-hold
vector 482 scenario.client0.tcp.conn-49 unacked:vector ETV
attr interpolationmode sample-hold
vector 483 scenario.client2.tcp.conn-50 rcvSeq:vector ETV
attr interpolationmode sample-hold
vector 484 scenario.client2.tcp.conn-50 rcvAck:vector ETV
attr interpolationmode sample-hold
vector 485 scenario.client2.tcp.conn-50 unacked:vector ETV
attr interpolationmode sample-hold
vector 486 scenario.client2.tcp.conn-50 cwnd:vector ETV
attr interpolationmode sample-hold
vector 487 scenario.client2.tcp.conn-50 ssthresh:vector ETV
attr interpolationmode sample-hold
vector 488 scenario.client2.tcp.conn-50 dupAcks:vector ETV
attr interpolationmode sample-hold
vector 489 scenario.client0.tcp.conn-49 rtt:vector ETV
attr interpolationmode sample-hold
vector 490 scenario.client0.tcp.conn-49 srtt:vector ETV
attr interpolationmode sample-hold
vector 491 scenario.client0.tcp.conn-49 rttvar:vector ETV
attr interpolationmode sample-hold
vector 492 scenario.client0.tcp.conn-49 rto:vector ETV
attr interpolationmode sample-hold
vector 493 scenario.client0.tcp.conn-49 cwnd:vector ETV
attr interpolationmode sample-hold
vector 494 scenario.client0.tcp.conn-49 ssthresh:vector ETV
attr interpolationmode sample-hold
vector 495 scenario.client0.tcp.conn-49 dupAcks:vector ETV
attr interpolationmode sample-hold
vector 496 scenario.client2.tcp.conn-51 tcpRcvQueueBytes:vector ETV
attr interpolationmode sample-hold
vector 497 scenario.client2.tcp.conn-51 rcvAdv:vector ETV
attr interpolationmode sample-hold
vector 498 scenario.client2.tcp.conn-51 rcvWnd:vector ETV
attr interpolationmode sample-hold
vector 499 scenario.client2.tcp.conn-51 sndAck:vector ETV
attr interpolationmode sample-hold
vector 500 scenario.client0.tcp.conn-52 rcvAdv:vector ETV
attr interpolationmode sample-hold
vector 501 scenario.client0.tcp.conn-52 sndWnd:vector ETV
attr interpolationmode sample-hold
vector 502 scenario.client0.tcp.conn-52 tcpRcvQueueBytes:vector ETV
attr interpolationmode sample-hold
vector 503 scenario.client0.tcp.conn-52 rcvWnd:vector ETV
attr interpolationmode sample-hold
vector 504 scenario.client0.tcp.conn-52 sndAck:vector ETV
attr interpolationmode sample-hold
vector 505 scenario.client2.tcp.conn-51 rcvSeq:vector ETV
attr interpolationmode sample-hold
vector 506 scenario.client2.tcp.conn-51 rcvAck:vector ETV
attr interpolationmode sample-hold
vector 507 scenario.client2.tcp.conn-51 sndWnd:vector ETV
attr interpolationmode sample-hold
vector 508 scenario.client2.tcp.conn-51 unacked:vector ETV
attr interpolationmode sample-hold
vector 509 scenario.client0.tcp.conn-52 rcvSeq:vector ETV
attr interpolationmode sample-hold
vector 510 scenario.client0.tcp.conn-52 rcvAck:vector ETV
attr interpolationmode sample-hold
vector 511 scenario.client0.tcp.conn-52 unacked:vector ETV
attr interpolationmode sample-hold
vector 512 scenario.client0.tcp.conn-52 cwnd:vector ETV
attr interpolationmode sample-hold
vector 513 scenario.client0.tcp.conn-52 ssthresh:vector ETV
attr interpolationmode sample-hold
vector 514 scenario.client0.tcp.conn-52 dupAcks:vector ETV
attr interpolationmode sample-hold
vector 515 scenario.client2.tcp.conn-51 rtt:vector ETV
attr interpolationmode sample-hold
vector 516 scenario.client2.tcp.conn-51 srtt:vector ETV
attr interpolationmode sample-hold
vector 517 scenario.client2.tcp.conn-51 rttvar:vector ETV
attr interpolationmode sample-hold
vector 518 scenario.client2.tcp.conn-51 rto:vector ETV
attr interpolationmode sample-hold
vector 519 scenario.client2.tcp.conn-51 cwnd:vector ETV
attr interpolationmode sample-hold
vector 520 scenario.client2.tcp.conn-51 ssthresh:vector ETV
attr interpolationmode sample-hold
vector 521 scenario.client2.tcp.conn-51 dupAcks:vector ETV
attr interpolationmode sample-hold
vector 522 scenario.client1.tcp.conn-53 tcpRcvQueueBytes:vector ETV
attr interpolationmode sample-hold
vector 523 scenario.client1.tcp.conn-53 rcvAdv:vector ETV
attr interpolationmode sample-hold
vector 524 scenario.client1.tcp.conn-53 rcvWnd:vector ETV
attr interpolationmode sample-hold
vector 525 scenario.client1.tcp.conn-53 sndAck:vector ETV
attr interpolationmode sample-hold
vector 526 scenario.client0.tcp.conn-54 rcvAdv:vector ETV
attr interpolationmode sample-hold
vector 527 scenario.client0.tcp.conn-54 sndWnd:vector ETV
attr interpolationmode sample-hold
vector 528 scenario.client0.tcp.conn-54 tcpRcvQueueBytes:vector ETV
attr interpolationmode sample-hold
vector 529 scenario.client0.tcp.conn-54 rcvWnd:vector ETV
attr interpolationmode sample-hold
vector 530 scenario.client0.tcp.conn-54 sndAck:vector ETV
attr interpolationmode sample-hold
vector 531 scenario.client1.tcp.conn-53 rcvSeq:vector ETV
attr interpolationmode sample-hold
vector 532 scenario.client1.tcp.conn-53 rcvAck:vector ETV
attr interpolationmode sample-hold
vector 533 scenario.client1.tcp.conn-53 sndWnd:vector ETV
attr interpolationmode sample-hold
vector 534 scenario.client1.tcp.conn-53 unacked:vector ETV
attr interpolationmode sample-hold
vector 535 scenario.client0.tcp.conn-54 rcvSeq:vector ETV
attr interpolationmode sample-hold
vector 536 scenario.client0.tcp.conn-54 rcvAck:vector ETV
attr interpolationmode sample-hold
vector 537 scenario.client0.tcp.conn-54 unacked:vector ETV
attr interpolationmode sample-hold
vector 538 scenario.client0.tcp.conn-54 cwnd:vector ETV
attr interpolationmode sample-hold
vector 539 scenario.client0.tcp.conn-54 ssthresh:vector ETV
attr interpolationmode sample-hold
vector 540 scenario.client0.tcp.conn-54 dupAcks:vector ETV
attr interpolationmode sample-hold
vector 541 scenario.client1.tcp.conn-53 rtt:vector ETV
attr interpolationmode sample-hold
vector 542 scenario.client1.tcp.conn-53 srtt:vector ETV
attr interpolationmode sample-hold
vector 543 scenario.client1.tcp.conn-53 rttvar:vector ETV
attr interpolationmode sample-hold
vector 544 scenario.client1.tcp.conn-53 rto:vector ETV
attr interpolationmode sample-hold
vector 545 scenario.client1.tcp.conn-53 cwnd:vector ETV
attr interpolationmode sample-hold
vector 546 scenario.client1.tcp.conn-53 ssthresh:vector ETV
attr interpolationmode sample-hold
vector 547 scenario.client1.tcp.conn-53 dupAcks:vector ETV
attr interpolationmode sample-hold
vector 548 scenario.client2.tcp.conn-55 tcpRcvQueueBytes:vector ETV
attr interpolationmode sample-hold
vector 549 scenario.client2.tcp.conn-55 rcvAdv:vector ETV
attr interpolationmode sample-hold
vector 550 scenario.client2.tcp.conn-55 rcvWnd:vector ETV
attr interpolationmode sample-hold
vector 551 scenario.client2.tcp.conn-55 sndAck:vector ETV
attr interpolationmode sample-hold
vector 552 scenario.client2.ppp[1].ppp rcvdPkFromHl:vector(packetBytes) ETV
attr interpolationmode none
attr source packetReceivedFromUpper
attr title "packets received from higher layer, vector(packetBytes)"
vector 553 scenario.client2.ppp[1].ppp.queue packetPushed:vector(packetBytes) ETV
attr interpolationmode none
attr title "packet pushed, vector(packetBytes)"
vector 554 scenario.client2.ppp[1].ppp.queue queueLength:vector ETV
attr interpolationmode sample-hold
attr source "count(packetPushed) - count(packetPopped) - count(packetRemoved) - count(packetDropped)"
attr title "queue length, vector"
vector 555 scenario.client2.ppp[1].ppp.queue packetPopped:vector(packetBytes) ETV
attr interpolationmode none
attr title "packet popped, vector(packetBytes)"
vector 556 scenario.client2.ppp[1].ppp.queue queueingTime:vector ETV
attr interpolationmode none
attr source queueingTime(packetPopped)
attr title "queueing times, vector"
attr unit s
vector 557 scenario.client2.ppp[1].ppp txPk:vector(packetBytes) ETV
attr interpolationmode none
attr source packetSentToLower
attr title "packets transmitted, vector(packetBytes)"
vector 558 scenario.client1.ppp[1].ppp rxPkOk:vector(packetBytes) ETV
attr interpolationmode none
attr source rxPkOk
attr title "packets received OK, vector(packetBytes)"
vector 559 scenario.client1.ppp[1].ppp passedUpPk:vector(packetBytes) ETV
attr interpolationmode none
attr source packetSentToUpper
attr title "packets passed to higher layer, vector(packetBytes)"
vector 560 scenario.client1.tcp.conn-56 rcvAdv:vector ETV
attr interpolationmode sample-hold
vector 561 scenario.client1.tcp.conn-56 sndWnd:vector ETV
attr interpolationmode sample-hold
vector 562 scenario.client1.tcp.conn-56 tcpRcvQueueBytes:vector ETV
attr interpolationmode sample-hold
vector 563 scenario.client1.tcp.conn-56 rcvWnd:vector ETV
attr interpolationmode sample-hold
vector 564 scenario.client1.tcp.conn-56 sndAck:vector ETV
attr interpolationmode sample-hold
vector 565 scenario.client1.ppp[1].ppp rcvdPkFromHl:vector(packetBytes) ETV
attr interpolationmode none
attr source packetReceivedFromUpper
attr title "packets received from higher layer, vector(packetBytes)"
vector 566 scenario.client1.ppp[1].ppp.queue packetPushed:vector(packetBytes) ETV
attr interpolationmode none
attr title "packet pushed, vector(packetBytes)"
vector 567 scenario.client1.ppp[1].ppp.queue queueLength:vector ETV
attr interpolationmode sample-hold
attr source "count(packetPushed) - count(packetPopped) - count(packetRemoved) - count(packetDropped)"
attr title "queue length, vector"
vector 568 scenario.client1.ppp[1].ppp.queue packetPopped:vector(packetBytes) ETV
attr interpolationmode none
attr title "packet popped, vector(packetBytes)"
vector 569 scenario.client1.ppp[1].ppp.queue queueingTime:vector ETV
attr interpolationmode none
attr source queueingTime(packetPopped)
attr title "queueing times, vector"
attr unit s
vector 570 scenario.client1.ppp[1].ppp txPk:vector(packetBytes) ETV
attr interpolationmode none
attr source packetSentToLower
attr title "packets transmitted, vector(packetBytes)"
vector 571 scenario.client2.ppp[1].ppp rxPkOk:vector(packetBytes) ETV
attr interpolationmode none
attr source rxPkOk
attr title "packets received OK, vector(packetBytes)"
vector 572 scenario.client2.ppp[1].ppp passedUpPk:vector(packetBytes) ETV
attr interpolationmode none
attr source packetSentToUpper
attr title "packets passed to higher layer, vector(packetBytes)"
vector 573 scenario.client2.tcp.conn-55 rcvSeq:vector ETV
attr interpolationmode sample-hold
vector 574 scenario.client2.tcp.conn-55 rcvAck:vector ETV
attr interpolationmode sample-hold
vector 575 scenario.client2.tcp.conn-55 sndWnd:vector ETV
attr interpolationmode sample-hold
vector 576 scenario.client2.tcp.conn-55 unacked:vector ETV
attr interpolationmode sample-hold
vector 577 scenario.client1.tcp.conn-56 rcvSeq:vector ETV
attr interpolationmode sample-hold
vector 578 scenario.client1.tcp.conn-56 rcvAck:vector ETV
attr interpolationmode sample-hold
vector 579 scenario.client1.tcp.conn-56 unacked:vector ETV
attr interpolationmode sample-hold
vector 580 scenario.client1.tcp.conn-56 cwnd:vector ETV
attr interpolationmode sample-hold
vector 581 scenario.client1.tcp.conn-56 ssthresh:vector ETV
attr interpolationmode sample-hold
vector 582 scenario.client1.tcp.conn-56 dupAcks:vector ETV
attr interpolationmode sample-hold
vector 583 scenario.client2.tcp.conn-55 rtt:vector ETV
attr interpolationmode sample-hold
vector 584 scenario.client2.tcp.conn-55 srtt:vector ETV
attr interpolationmode sample-hold
vector 585 scenario.client2.tcp.conn-55 rttvar:vector ETV
attr interpolationmode sample-hold
vector 586 scenario.client2.tcp.conn-55 rto:vector ETV
attr interpolationmode sample-hold
vector 587 scenario.client2.tcp.conn-55 cwnd:vector ETV
attr interpolationmode sample-hold
vector 588 scenario.client2.tcp.conn-55 ssthresh:vector ETV
attr interpolationmode sample-hold
vector 589 scenario.client2.tcp.conn-55 dupAcks:vector ETV
attr interpolationmode sample-hold
vector 590 scenario.client1.tcp.conn-57 tcpRcvQueueBytes:vector ETV
attr interpolationmode sample-hold
vector 591 scenario.client1.tcp.conn-57 rcvAdv:vector ETV
attr interpolationmode sample-hold
vector 592 scenario.client1.tcp.conn-57 rcvWnd:vector ETV
attr interpolationmode sample-hold
vector 593 scenario.client1.tcp.conn-57 sndAck:vector ETV
attr interpolationmode sample-hold
vector 594 scenario.client2.tcp.conn-58 rcvAdv:vector ETV
attr interpolationmode sample-hold
vector 595 scenario.client2.tcp.conn-58 sndWnd:vector ETV
attr interpolationmode sample-hold
vector 596 scenario.client2.tcp.conn-58 tcpRcvQueueBytes:vector ETV
attr interpolationmode sample-hold
vector 597 scenario.client2.tcp.conn-58 rcvWnd:vector ETV
attr interpolationmode sample-hold
vector 598 scenario.client2.tcp.conn-58 sndAck:vector ETV
attr interpolationmode sample-hold
vector 599 scenario.client1.tcp.conn-57 rcvSeq:vector ETV
attr interpolationmode sample-hold
vector 600 scenario.client1.tcp.conn-57 rcvAck:vector ETV
attr interpolationmode sample-hold
vector 601 scenario.client1.tcp.conn-57 sndWnd:vector ETV
attr interpolationmode sample-hold
vector 602 scenario.client1.tcp.conn-57 unacked:vector ETV
attr interpolationmode sample-hold
vector 603 scenario.client2.tcp.conn-58 rcvSeq:vector ETV
attr interpolationmode sample-hold
vector 604 scenario.client2.tcp.conn-58 rcvAck:vector ETV
attr interpolationmode sample-hold
vector 605 scenario.client2.tcp.conn-58 unacked:vector ETV
attr interpolationmode sample-hold
vector 606 scenario.client2.tcp.conn-58 cwnd:vector ETV
attr interpolationmode sample-hold
vector 607 scenario.client2.tcp.conn-58 ssthresh:vector ETV
attr interpolationmode sample-hold
vector 608 scenario.client2.tcp.conn-58 dupAcks:vector ETV
attr interpolationmode sample-hold
vector 609 scenario.client1.tcp.conn-57 rtt:vector ETV
attr interpolationmode sample-hold
vector 610 scenario.client1.tcp.conn-57 srtt:vector ETV
attr interpolationmode sample-hold
vector 611 scenario.client1.tcp.conn-57 rttvar:vector ETV
attr interpolationmode sample-hold
vector 612 scenario.client1.tcp.conn-57 rto:vector ETV
attr interpolationmode sample-hold
vector 613 scenario.client1.tcp.conn-57 cwnd:vector ETV
attr interpolationmode sample-hold
vector 614 scenario.client1.tcp.conn-57 ssthresh:vector ETV
attr interpolationmode sample-hold
vector 615 scenario.client1.tcp.conn-57 dupAcks:vector ETV
attr interpolationmode sample-hold
vector 616 scenario.client0.tcp.conn-59 tcpRcvQueueBytes:vector ETV
attr interpolationmode sample-hold
vector 617 scenario.client0.tcp.conn-59 rcvAdv:vector ETV
attr interpolationmode sample-hold
vector 618 scenario.client0.tcp.conn-59 rcvWnd:vector ETV
attr interpolationmode sample-hold
vector 619 scenario.client0.tcp.conn-59 sndAck:vector ETV
attr interpolationmode sample-hold
vector 620 scenario.client3.tcp.conn-60 rcvAdv:vector ETV
attr interpolationmode sample-hold
vector 621 scenario.client3.tcp.conn-60 sndWnd:vector ETV
attr interpolationmode sample-hold
vector 622 scenario.client3.tcp.conn-60 tcpRcvQueueBytes:vector ETV
attr interpolationmode sample-hold
vector 623 scenario.client3.tcp.conn-60 rcvWnd:vector ETV
attr interpolationmode sample-hold
vector 624 scenario.client3.tcp.conn-60 sndAck:vector ETV
attr interpolationmode sample-hold
vector 625 scenario.client0.tcp.conn-59 rcvSeq:vector ETV
attr interpolationmode sample-hold
vector 626 scenario.client0.tcp.conn-59 rcvAck:vector ETV
attr interpolationmode sample-hold
vector 627 scenario.client0.tcp.conn-59 sndWnd:vector ETV
attr interpolationmode sample-hold
vector 628 scenario.client0.tcp.conn-59 unacked:vector ETV
attr interpolationmode sample-hold
vector 629 scenario.client3.tcp.conn-60 rcvSeq:vector ETV
attr interpolationmode sample-hold
vector 630 scenario.client3.tcp.conn-60 rcvAck:vector ETV
attr interpolationmode sample-hold
vector 631 scenario.client3.tcp.conn-60 unacked:vector ETV
attr interpolationmode sample-hold
vector 632 scenario.client3.tcp.conn-60 cwnd:vector ETV
attr interpolationmode sample-hold
vector 633 scenario.client3.tcp.conn-60 ssthresh:vector ETV
attr interpolationmode sample-hold
vector 634 scenario.client3.tcp.conn-60 dupAcks:vector ETV
attr interpolationmode sample-hold
vector 635 scenario.client0.tcp.conn-59 rtt:vector ETV
attr interpolationmode sample-hold
vector 636 scenario.client0.tcp.conn-59 srtt:vector ETV
attr interpolationmode sample-hold
vector 637 scenario.client0.tcp.conn-59 rttvar:vector ETV
attr interpolationmode sample-hold
vector 638 scenario.client0.tcp.conn-59 rto:vector ETV
attr interpolationmode sample-hold
vector 639 scenario.client0.tcp.conn-59 cwnd:vector ETV
attr interpolationmode sample-hold
vector 640 scenario.client0.tcp.conn-59 ssthresh:vector ETV
attr interpolationmode sample-hold
vector 641 scenario.client0.tcp.conn-59 dupAcks:vector ETV
attr interpolationmode sample-hold
vector 642 scenario.client4.tcp.conn-61 tcpRcvQueueBytes:vector ETV
attr interpolationmode sample-hold
vector 643 scenario.client4.tcp.conn-61 rcvAdv:vector ETV
attr interpolationmode sample-hold
vector 644 scenario.client4.tcp.conn-61 rcvWnd:vector ETV
attr interpolationmode sample-hold
vector 645 scenario.client4.tcp.conn-61 sndAck:vector ETV
attr interpolationmode sample-hold
vector 646 scenario.client4.ppp[3].ppp rcvdPkFromHl:vector(packetBytes) ETV
attr interpolationmode none
attr source packetReceivedFromUpper
attr title "packets received from higher layer, vector(packetBytes)"
vector 647 scenario.client4.ppp[3].ppp.queue packetPushed:vector(packetBytes) ETV
attr interpolationmode none
attr title "packet pushed, vector(packetBytes)"
vector 648 scenario.client4.ppp[3].ppp.queue queueLength:vector ETV
attr interpolationmode sample-hold
attr source "count(packetPushed) - count(packetPopped) - count(packetRemoved) - count(packetDropped)"
attr title "queue length, vector"
vector 649 scenario.client4.ppp[3].ppp.queue packetPopped:vector(packetBytes) ETV
attr interpolationmode none
attr title "packet popped, vector(packetBytes)"
vector 650 scenario.client4.ppp[3].ppp.queue queueingTime:vector ETV
attr interpolationmode none
attr source queueingTime(packetPopped)
attr title "queueing times, vector"
attr unit s
vector 651 scenario.client4.ppp[3].ppp txPk:vector(packetBytes) ETV
attr interpolationmode none
attr source packetSentToLower
attr title "packets transmitted, vector(packetBytes)"
vector 652 scenario.client3.ppp[3].ppp rxPkOk:vector(packetBytes) ETV
attr interpolationmode none
attr source rxPkOk
attr title "packets received OK, vector(packetBytes)"
vector 653 scenario.client3.ppp[3].ppp passedUpPk:vector(packetBytes) ETV
attr interpolationmode none
attr source packetSentToUpper
attr title "packets passed to higher layer, vector(packetBytes)"
vector 654 scenario.client3.tcp.conn-62 rcvAdv:vector ETV
attr interpolationmode sample-hold
vector 655 scenario.client3.tcp.conn-62 sndWnd:vector ETV
attr interpolationmode sample-hold
vector 656 scenario.client3.tcp.conn-62 tcpRcvQueueBytes:vector ETV
attr interpolationmode sample-hold
vector 657 scenario.client3.tcp.conn-62 rcvWnd:vector ETV
attr interpolationmode sample-hold
vector 658 scenario.client3.tcp.conn-62 sndAck:vector ETV
attr interpolationmode sample-hold
vector 659 scenario.client3.ppp[3].ppp rcvdPkFromHl:vector(packetBytes) ETV
attr interpolationmode none
attr source packetReceivedFromUpper
attr title "packets received from higher layer, vector(packetBytes)"
vector 660 scenario.client3.ppp[3].ppp.queue packetPushed:vector(packetBytes) ETV
attr interpolationmode none
attr title "packet pushed, vector(packetBytes)"
vector 661 scenario.client3.ppp[3].ppp.queue queueLength:vector ETV
attr interpolationmode sample-hold
attr source "count(packetPushed) - count(packetPopped) - count(packetRemoved) - count(packetDropped)"
attr title "queue length, vector"
vector 662 scenario.client3.ppp[3].ppp.queue packetPopped:vector(packetBytes) ETV
attr interpolationmode none
attr title "packet popped, vector(packetBytes)"
[...]
473	234156 1324 432 2690 1.371591919797 6.044540669333 50 0 1 25 25
474	235480 687 432 2690 1.371591919797 6.044540669333 25 40 44 1021 41729
475	236167 662 432 2690 1.371591919797 6.044540669333 25 0 0 0 0
476	236829 687 432 2690 1.371591919797 6.044540669333 25 47 51 1196 57248
477	237516 687 434 2692 1.372499919797 6.045416669333 25 47 51 1196 57248
478	238203 687 434 2692 1.372499919797 6.045416669333 25 40 44 1021 41729
479	238890 411 436 2694 1.372499919797 6.045416669333 13 342897 342898 4457673 1528526813457
480	239301 411 436 2694 1.372499919797 6.045416669333 13 342671 342685 4454816 1526568122864
481	239712 385 436 2694 1.372499919797 6.045416669333 13 7503 7504 97551 732015201
482	240097 640 436 2694 1.372499919797 6.045416669333 24 0 2 14 18
483	240737 380 443 2687 1.373383919797 6.044540669333 12 342671 342684 4112131 1409135113639
484	241117 380 443 2687 1.373383919797 6.044540669333 12 342898 342898 4114776 1410948460848
485	241497 26 443 443 1.373383919797 1.373383919797 1 0 0 0 0
486	241523 29 443 443 1.373383919797 1.373383919797 1 1072 1072 1072 1149184
487	241552 35 443 443 1.373383919797 1.373383919797 1 4294967295 4294967295 4294967295 1.844674406512e+019
488	241587 320 443 2687 1.373383919797 6.044540669333 12 0 0 0 0
489	241907 394 453 2694 1.374259919797 6.045416669333 12 0.00176 0.001768 0.021136 3.7227648e-005
490	242301 462 453 2694 1.374259919797 6.045416669333 12 0.00022 0.001406392502 0.011291252505 1.2269168175125e-005
491	242763 460 453 2694 1.374259919797 6.045416669333 12 0.151670798399 0.65647 4.199555551204 1.767406291588
492	243223 409 453 2694 1.374259919797 6.045416669333 12 1 2.6261 17.8078436411 30.00262269198
493	243632 356 453 2694 1.374259919797 6.045416669333 12 1072 6968 48240 235008128
494	243988 428 453 2694 1.374259919797 6.045416669333 12 4294967295 4294967295 51539607540 2.2136092878144e+020
495	244416 320 453 2694 1.374259919797 6.045416669333 12 0 0 0 0
496	244736 316 460 2581 1.466817224647 5.665379744378 12 0 0 0 0
497	245052 405 460 2581 1.466817224647 5.665379744378 13 7504 374436 4500736 1682484127168
498	245457 352 460 2581 1.466817224647 5.665379744378 12 7504 7504 90048 675720192
499	245809 371 460 2581 1.466817224647 5.665379744378 12 0 366932 4036252 1481030018864
500	246180 407 467 2587 1.467725224647 5.666263744378 13 374209 374222 4864795 1820479261195
501	246587 58 467 480 1.467725224647 1.469517224647 2 7504 7504 15008 112620032
502	246645 606 467 2587 1.467725224647 5.666263744378 23 0 1 1 1
503	247251 352 467 2587 1.467725224647 5.666263744378 12 7503 7504 90047 675705185
504	247603 376 467 2587 1.467725224647 5.666263744378 12 366705 366718 4400539 1613728624429
505	247979 376 473 2594 1.468633224647 5.667139744378 12 366931 366932 4403183 1615668377625
506	248355 376 473 2594 1.468633224647 5.667139744378 12 366705 366718 4400539 1613728624429
507	248731 352 473 2594 1.468633224647 5.667139744378 12 7503 7504 90047 675705185
508	249083 580 473 2594 1.468633224647 5.667139744378 22 0 2 13 17
509	249663 345 480 2587 1.469517224647 5.666263744378 11 366705 366717 4033821 1479246532905
510	250008 345 480 2587 1.469517224647 5.666263744378 11 366932 366932 4036252 1481030018864
511	250353 26 480 480 1.469517224647 1.469517224647 1 0 0 0 0
512	250379 29 480 480 1.469517224647 1.469517224647 1 1072 1072 1072 1149184
513	250408 35 480 480 1.469517224647 1.469517224647 1 4294967295 4294967295 4294967295 1.844674406512e+019
514	250443 290 480 2587 1.469517224647 5.666263744378 11 0 0 0 0
515	250733 358 490 2594 1.470393224647 5.667139744378 11 0.00176 0.001768 0.019376 3.4130048e-005
516	251091 419 490 2594 1.470393224647 5.667139744378 11 0.00022 0.001355842491 0.009885102575 1.0292512447097e-005
517	251510 421 490 2594 1.470393224647 5.667139744378 11 0.173280240973 0.65647 4.047885053116 1.7444022121865
518	251931 378 490 2594 1.470393224647 5.667139744378 11 1 2.6261 16.807846417015 29.002623357122
519	252309 323 490 2594 1.470393224647 5.667139744378 11 1072 6432 41272 186455104
520	252632 389 490 2594 1.470393224647 5.667139744378 11 4294967295 4294967295 47244640245 2.0291418471632e+020
521	253021 290 490 2594 1.470393224647 5.667139744378 11 0 0 0 0
522	253311 318 492 2661 1.550665941343 5.845590506059 12 0 0 0 0
523	253629 407 492 2661 1.550665941343 5.845590506059 13 7504 395398 4752280 1876131250864
524	254036 354 492 2661 1.550665941343 5.845590506059 12 7504 7504 90048 675720192
525	254390 373 492 2661 1.550665941343 5.845590506059 12 0 387894 4266834 1655079307596
526	254763 409 499 2667 1.551573941343 5.846474506059 13 395171 395184 5137299 2030141616827
527	255172 58 499 512 1.551573941343 1.553365941343 2 7504 7504 15008 112620032
528	255230 610 499 2667 1.551573941343 5.846474506059 23 0 1 1 1
529	255840 354 499 2667 1.551573941343 5.846474506059 12 7503 7504 90047 675705185
530	256194 378 499 2667 1.551573941343 5.846474506059 12 387667 387680 4652081 1803488136089
531	256572 379 505 2674 1.552481941343 5.847350506059 12 387893 387894 4654727 1805540287045
532	256951 379 505 2674 1.552481941343 5.847350506059 12 387667 387680 4652081 1803488136089
533	257330 355 505 2674 1.552481941343 5.847350506059 12 7503 7504 90047 675705185
534	257685 585 505 2674 1.552481941343 5.847350506059 22 0 2 13 17
535	258270 347 512 2667 1.553365941343 5.846474506059 11 387667 387679 4264401 1653192353689
536	258617 347 512 2667 1.553365941343 5.846474506059 11 387894 387894 4266834 1655079307596
537	258964 26 512 512 1.553365941343 1.553365941343 1 0 0 0 0
538	258990 29 512 512 1.553365941343 1.553365941343 1 1072 1072 1072 1149184
539	259019 35 512 512 1.553365941343 1.553365941343 1 4294967295 4294967295 4294967295 1.844674406512e+019
540	259054 292 512 2667 1.553365941343 5.846474506059 11 0 0 0 0
541	259346 361 522 2674 1.554241941343 5.847350506059 11 0.00176 0.002144 0.019752 3.560096e-005
542	259707 420 522 2674 1.554241941343 5.847350506059 11 0.00022 0.00139200631 0.010007955848 1.061535942403e-005
543	260127 424 522 2674 1.554241941343 5.847350506059 11 0.173306239751 0.65647 4.047992372206 1.7444458160371
544	260551 381 522 2674 1.554241941343 5.847350506059 11 1 2.6261 16.807837542015 29.002603518551
545	260932 326 522 2674 1.554241941343 5.847350506059 11 1072 6432 41272 186455104
546	261258 392 522 2674 1.554241941343 5.847350506059 11 4294967295 4294967295 47244640245 2.0291418471632e+020
547	261650 293 522 2674 1.554241941343 5.847350506059 11 0 0 0 0
548	261943 317 524 2596 1.561607715079 5.710608175422 12 0 0 0 0
549	262260 406 524 2596 1.561607715079 5.710608175422 13 7504 398133 4785100 1902174938284
550	262666 353 524 2596 1.561607715079 5.710608175422 12 7504 7504 90048 675720192
551	263019 372 524 2596 1.561607715079 5.710608175422 12 0 390629 4296919 1678501172051
552	263391 660 527 2598 1.561607715079 5.710608175422 24 40 44 981 40129
553	264051 660 527 2598 1.561607715079 5.710608175422 24 40 44 981 40129
554	264711 1272 527 2598 1.561607715079 5.710608175422 48 0 1 24 24
555	265983 660 527 2598 1.561607715079 5.710608175422 24 40 44 981 40129
556	266643 643 527 2598 1.561607715079 5.710608175422 24 0 0.000376 0.000376 1.41376e-007
557	267286 660 527 2598 1.561607715079 5.710608175422 24 47 51 1149 55039
558	267946 661 529 2600 1.562515715079 5.711492175422 24 47 51 1149 55039
559	268607 661 529 2600 1.562515715079 5.711492175422 24 40 44 981 40129
560	269268 408 531 2602 1.562515715079 5.711492175422 13 397906 397919 5172854 2058339885268
561	269676 58 531 544 1.562515715079 1.564307715079 2 7504 7504 15008 112620032
562	269734 608 531 2602 1.562515715079 5.711492175422 23 0 1 1 1
563	270342 353 531 2602 1.562515715079 5.711492175422 12 7503 7504 90047 675705185
564	270695 377 531 2602 1.562515715079 5.711492175422 12 390402 390415 4684901 1829024781845
565	271072 660 533 2605 1.562515715079 5.711492175422 24 40 44 981 40129
566	271732 660 533 2605 1.562515715079 5.711492175422 24 40 44 981 40129
567	272392 1272 533 2605 1.562515715079 5.711492175422 48 0 1 24 24
568	273664 660 533 2605 1.562515715079 5.711492175422 24 40 44 981 40129
569	274324 643 533 2605 1.562515715079 5.711492175422 24 0 0.000376 0.000376 1.41376e-007
570	274967 660 533 2605 1.562515715079 5.711492175422 24 47 51 1149 55039
571	275627 660 535 2607 1.563423715079 5.712368175422 24 47 51 1149 55039
572	276287 660 535 2607 1.563423715079 5.712368175422 24 40 44 981 40129
573	276947 377 537 2609 1.563423715079 5.712368175422 12 390628 390629 4687547 1831091406435
574	277324 377 537 2609 1.563423715079 5.712368175422 12 390402 390415 4684901 1829024781845
575	277701 353 537 2609 1.563423715079 5.712368175422 12 7503 7504 90047 675705185
576	278054 582 537 2609 1.563423715079 5.712368175422 22 0 2 13 17
577	278636 346 544 2602 1.564307715079 5.711492175422 11 390402 390414 4294486 1676600909620
578	278982 346 544 2602 1.564307715079 5.711492175422 11 390629 390629 4296919 1678501172051
579	279328 26 544 544 1.564307715079 1.564307715079 1 0 0 0 0
580	279354 29 544 544 1.564307715079 1.564307715079 1 1072 1072 1072 1149184
581	279383 35 544 544 1.564307715079 1.564307715079 1 4294967295 4294967295 4294967295 1.844674406512e+019
582	279418 291 544 2602 1.564307715079 5.711492175422 11 0 0 0 0
583	279709 359 554 2609 1.565183715079 5.712368175422 11 0.00176 0.002144 0.019752 3.560096e-005
584	280068 418 554 2609 1.565183715079 5.712368175422 11 0.00022 0.001372231841 0.010146377121 1.0792385054239e-005
585	280486 422 554 2609 1.565183715079 5.712368175422 11 0.173278383577 0.65647 4.048029169693 1.7445230680265
586	280908 380 554 2609 1.565183715079 5.712368175422 11 1 2.6261 16.808624455344 29.005191073024
587	281288 324 554 2609 1.565183715079 5.712368175422 11 1072 6432 41272 186455104
588	281612 390 554 2609 1.565183715079 5.712368175422 11 4294967295 4294967295 47244640245 2.0291418471632e+020
589	282002 291 554 2609 1.565183715079 5.712368175422 11 0 0 0 0
590	282293 319 581 2456 1.864274144718 5.462309582325 12 0 0 0 0
591	282612 408 581 2456 1.864274144718 5.462309582325 13 7504 473800 5693104 2693893590016
592	283020 355 581 2456 1.864274144718 5.462309582325 12 7504 7504 90048 675720192
593	283375 374 581 2456 1.864274144718 5.462309582325 12 0 466296 5129256 2391751555776
594	283749 410 588 2462 1.865182144718 5.463193582325 13 473573 473586 6156527 2915601900403
595	284159 58 588 601 1.865182144718 1.866974144718 2 7504 7504 15008 112620032
596	284217 612 588 2462 1.865182144718 5.463193582325 23 0 1 1 1
597	284829 355 588 2462 1.865182144718 5.463193582325 12 7503 7504 90047 675705185
598	285184 379 588 2462 1.865182144718 5.463193582325 12 466069 466082 5592907 2606717392773
599	285563 380 594 2469 1.866090144718 5.464069582325 12 466295 466296 5595551 2609182582801
600	285943 380 594 2469 1.866090144718 5.464069582325 12 466069 466082 5592907 2606717392773
601	286323 356 594 2469 1.866090144718 5.464069582325 12 7503 7504 90047 675705185
602	286679 587 594 2469 1.866090144718 5.464069582325 22 0 2 13 17
603	287266 348 601 2462 1.866974144718 5.463193582325 11 466069 466081 5126825 2389484962049
604	287614 348 601 2462 1.866974144718 5.463193582325 11 466296 466296 5129256 2391751555776
605	287962 26 601 601 1.866974144718 1.866974144718 1 0 0 0 0
606	287988 29 601 601 1.866974144718 1.866974144718 1 1072 1072 1072 1149184
607	288017 35 601 601 1.866974144718 1.866974144718 1 4294967295 4294967295 4294967295 1.844674406512e+019
608	288052 293 601 2462 1.866974144718 5.463193582325 11 0 0 0 0
609	288345 362 611 2469 1.867850144718 5.464069582325 11 0.00176 0.002144 0.019752 3.560096e-005
610	288707 421 611 2469 1.867850144718 5.464069582325 11 0.00022 0.001374299199 0.010131905623 1.0805203726742e-005
611	289128 425 611 2469 1.867850144718 5.464069582325 11 0.173280240973 0.65647 4.048032706777 1.744509135538
612	289553 382 611 2469 1.867850144718 5.464069582325 11 1 2.6261 16.808580573999 29.00478726533
613	289935 327 611 2469 1.867850144718 5.464069582325 11 1072 6432 41272 186455104
614	290262 393 611 2469 1.867850144718 5.464069582325 11 4294967295 4294967295 47244640245 2.0291418471632e+020
615	290655 294 611 2469 1.867850144718 5.464069582325 11 0 0 0 0
616	290949 186 613 2501 1.919855980102 5.573184364025 7 0 0 0 0
617	291135 250 613 2501 1.919855980102 5.573184364025 8 7504 487695 3421369 1664981201191
618	291385 207 613 2501 1.919855980102 5.573184364025 7 7504 7504 52528 394170112
619	291592 216 613 2501 1.919855980102 5.573184364025 7 0 480191 2881146 1383500378886
620	291808 253 620 2507 1.920763980102 5.574068364025 8 487468 487475 3899766 1901021856898
621	292061 58 620 633 1.920763980102 1.922555980102 2 7504 7504 15008 112620032
622	292119 348 620 2507 1.920763980102 5.574068364025 13 0 1 1 1
623	292467 208 620 2507 1.920763980102 5.574068364025 7 7503 7504 52527 394155105
624	292675 222 620 2507 1.920763980102 5.574068364025 7 479964 479971 3359771 1612580167531
625	292897 222 626 2514 1.921671980102 5.574944364025 7 480190 480191 3361336 1614082814986
626	293119 222 626 2514 1.921671980102 5.574944364025 7 479964 479971 3359771 1612580167531
627	293341 208 626 2514 1.921671980102 5.574944364025 7 7503 7504 52527 394155105
628	293549 321 626 2514 1.921671980102 5.574944364025 12 0 2 7 9
629	293870 191 633 2507 1.922555980102 5.574068364025 6 479964 479970 2879800 1382208006690
630	294061 191 633 2507 1.922555980102 5.574068364025 6 480191 480191 2881146 1383500378886
631	294252 26 633 633 1.922555980102 1.922555980102 1 0 0 0 0
632	294278 29 633 633 1.922555980102 1.922555980102 1 1072 1072 1072 1149184
633	294307 35 633 633 1.922555980102 1.922555980102 1 4294967295 4294967295 4294967295 1.844674406512e+019
634	294342 161 633 2507 1.922555980102 5.574068364025 6 0 0 0 0
635	294503 198 643 2514 1.923431980102 5.574944364025 6 0.00176 0.001768 0.010568 1.8613824e-005
636	294701 224 643 2514 1.923431980102 5.574944364025 6 0.00022 0.00097099524 0.003771033327 2.7659718920748e-006
637	294925 227 643 2514 1.923431980102 5.574944364025 6 0.337274278748 0.65647 2.896848010682 1.4701076760868
638	295152 224 643 2514 1.923431980102 5.574944364025 6 1.350068110232 2.6261 11.591163076055 23.534945296429
639	295376 179 643 2514 1.923431980102 5.574944364025 6 1072 3752 14472 39934144
640	295555 215 643 2514 1.923431980102 5.574944364025 6 4294967295 4294967295 25769803770 1.1068046439072e+020
641	295770 161 643 2514 1.923431980102 5.574944364025 6 0 0 0 0
642	295931 160 856 2313 2.888677694631 5.174854704796 6 0 0 0 0
643	296091 219 856 2313 2.888677694631 5.174854704796 7 7504 729901 4386910 3196589128822
644	296310 178 856 2313 2.888677694631 5.174854704796 6 7504 7504 45024 337860096
645	296488 185 856 2313 2.888677694631 5.174854704796 6 0 722397 3611985 2609287128045
646	296673 222 859 2315 2.888677694631 5.174854704796 8 40 44 334 13960
647	296895 222 859 2315 2.888677694631 5.174854704796 8 40 44 334 13960
648	297117 428 859 2315 2.888677694631 5.174854704796 16 0 1 8 8
649	297545 222 859 2315 2.888677694631 5.174854704796 8 40 44 334 13960
650	297767 214 859 2315 2.888677694631 5.174854704796 8 0 0 0 0
651	297981 222 859 2315 2.888677694631 5.174854704796 8 47 51 390 19028
652	298203 222 881 2327 2.889585694631 5.175738704796 8 47 51 390 19028
653	298425 222 881 2327 2.889585694631 5.175738704796 8 40 44 334 13960
654	298647 221 883 2329 2.889585694631 5.175738704796 7 729674 729680 5107734 3726992373574
655	298868 58 883 909 2.889585694631 2.891377694631 2 7504 7504 15008 112620032
656	298926 294 883 2329 2.889585694631 5.175738704796 11 0 1 1 1
657	299220 178 883 2329 2.889585694631 5.175738704796 6 7503 7504 45023 337845089
658	299398 190 883 2329 2.889585694631 5.175738704796 6 722170 722176 4333037 3129201607255
659	299588 222 885 2332 2.889585694631 5.175738704796 8 40 44 329 13553
660	299810 222 885 2332 2.889585694631 5.175738704796 8 40 44 329 13553
661	300032 428 885 2332 2.889585694631 5.175738704796 16 0 1 8 8
662	300460 222 885 2332 2.889585694631 5.175738704796 8 40 44 329 13553
663	300682 214 885 2332 2.889585694631 5.175738704796 8 0 0 0 0
664	300896 222 885 2332 2.889585694631 5.175738704796 8 47 51 385 18551
665	301118 222 897 2337 2.890493694631 5.176614704796 8 47 51 385 18551
666	301340 222 897 2337 2.890493694631 5.176614704796 8 40 44 329 13553
667	301562 190 899 2339 2.890493694631 5.176614704796 6 722396 722397 4334381 3131143108861
668	301752 190 899 2339 2.890493694631 5.176614704796 6 722170 722176 4333037 3129201607255
669	301942 178 899 2339 2.890493694631 5.176614704796 6 7503 7504 45023 337845089
670	302120 268 899 2339 2.890493694631 5.176614704796 10 0 2 6 8
671	302388 159 909 2329 2.891377694631 5.175738704796 5 722170 722175 3610861 2607663432279
672	302547 159 909 2329 2.891377694631 5.175738704796 5 722397 722397 3611985 2609287128045
673	302706 26 909 909 2.891377694631 2.891377694631 1 0 0 0 0
674	302732 29 909 909 2.891377694631 2.891377694631 1 1072 1072 1072 1149184
675	302761 35 909 909 2.891377694631 2.891377694631 1 4294967295 4294967295 4294967295 1.844674406512e+019
676	302796 134 909 2329 2.891377694631 5.175738704796 5 0 0 0 0
677	302930 165 919 2339 2.892253694631 5.176614704796 5 0.00176 0.001768 0.008808 1.5516224e-005
678	303095 185 919 2339 2.892253694631 5.176614704796 5 0.00022 0.000858155274 0.002800913087 1.8243832221547e-006
679	303280 187 919 2339 2.892253694631 5.176614704796 5 0.385327251465 0.65647 2.559574481934 1.3563544247706
680	303467 184 919 2339 2.892253694631 5.176614704796 5 1.542167161134 2.6261 10.241098840823 21.712275540625
681	303651 149 919 2339 2.892253694631 5.176614704796 5 1072 3216 10720 25856640
682	303800 179 919 2339 2.892253694631 5.176614704796 5 4294967295 4294967295 21474836475 9.2233720325598e+019
683	303979 134 919 2339 2.892253694631 5.176614704796 5 0 0 0 0
684	304113 54 1105 1118 3.668399609363 3.670215609363 2 0 0 0 0
685	304167 94 1105 1118 3.668399609363 3.670215609363 3 7504 924831 1857166 1710681067138
686	304261 60 1105 1118 3.668399609363 3.670215609363 2 7504 7504 15008 112620032
687	304321 59 1105 1118 3.668399609363 3.670215609363 2 0 917327 917327 841488824929
688	304380 96 1112 1125 3.669307609363 3.671099609363 3 924604 924604 2773812 2564677670448
689	304476 60 1112 1125 3.669307609363 3.671099609363 2 7504 7504 15008 112620032
690	304536 81 1112 1125 3.669307609363 3.671099609363 3 0 1 1 1
691	304617 60 1112 1125 3.669307609363 3.671099609363 2 7503 7504 15007 112605025
692	304677 64 1112 1125 3.669307609363 3.671099609363 2 917100 917101 1834201 1682146654201
693	304741 64 1118 1135 3.670215609363 3.671975609363 2 917326 917327 1834653 1682975815205
694	304805 64 1118 1135 3.670215609363 3.671975609363 2 917100 917101 1834201 1682146654201
695	304869 60 1118 1135 3.670215609363 3.671975609363 2 7503 7504 15007 112605025
696	304929 54 1118 1135 3.670215609363 3.671975609363 2 0 1 1 1
697	304983 32 1125 1125 3.671099609363 3.671099609363 1 917100 917100 917100 841072410000
698	305015 32 1125 1125 3.671099609363 3.671099609363 1 917327 917327 917327 841488824929
699	305047 27 1125 1125 3.671099609363 3.671099609363 1 0 0 0 0
700	305074 30 1125 1125 3.671099609363 3.671099609363 1 1072 1072 1072 1149184
701	305104 36 1125 1125 3.671099609363 3.671099609363 1 4294967295 4294967295 4294967295 1.844674406512e+019
702	305140 27 1125 1125 3.671099609363 3.671099609363 1 0 0 0 0
703	305167 33 1135 1135 3.671975609363 3.671975609363 1 0.00176 0.00176 0.00176 3.0976e-006
704	305200 33 1135 1135 3.671975609363 3.671975609363 1 0.00022 0.00022 0.00022 4.84e-008
705	305233 33 1135 1135 3.671975609363 3.671975609363 1 0.65647 0.65647 0.65647 0.4309528609
706	305266 32 1135 1135 3.671975609363 3.671975609363 1 2.6261 2.6261 2.6261 6.89640121
707	305298 30 1135 1135 3.671975609363 3.671975609363 1 1072 1072 1072 1149184
708	305328 36 1135 1135 3.671975609363 3.671975609363 1 4294967295 4294967295 4294967295 1.844674406512e+019
709	305364 27 1135 1135 3.671975609363 3.671975609363 1 0 0 0 0

