version 2
run BROADCAST5-0-20220109-22:09:58-13652
attr configname BROADCAST5
attr datetime 20220109-22:09:58
attr experiment BROADCAST5
attr inifile omnetpp.ini
attr iterationvars ""
attr iterationvarsf ""
attr measurement ""
attr network scenario
attr processid 13652
attr repetition 0
attr replication #0
attr resultdir results
attr runnumber 0
attr seedset 0
param **.client3.app[0].join 0.35
param **.client4.app[0].join 0.40
param **.client*.app[*].timer 0.2
param **.ppp[*].ppp.queue.typename "\"DropTailQueue\""
param **.tcp.typename "\"Tcp\""
param **.tcp.nagleEnabled false
param **.cli*.app[*].nPar 5
param **.cli*.app[*].fPar 0
param **.numApps 1
param **.client0.app[*].typename "\"Node\""
param **.client0.app[0].localPort 1000
param **.client0.app[0].localPortL 1234
param **.client0.app[0].connectAddress "\"\""
param **.client0.app[0].connectPort 1234
param **.client1.app[*].typename "\"Node\""
param **.client1.app[0].localPort 1001
param **.client1.app[0].localPortL 1234
param **.client1.app[0].connectAddress "\"\""
param **.client1.app[0].connectPort 1234
param **.client2.app[*].typename "\"Node\""
param **.client2.app[0].localPort 1002
param **.client2.app[0].localPortL 1234
param **.client2.app[0].connectAddress "\"\""
param **.client2.app[0].connectPort 1234
param **.client3.app[*].typename "\"Node\""
param **.client3.app[0].localPort 1003
param **.client3.app[0].localPortL 1234
param **.client3.app[0].connectAddress "\"\""
param **.client3.app[0].connectPort 1234
param **.client4.app[*].typename "\"Node\""
param **.client4.app[0].localPort 1004
param **.client4.app[0].localPortL 1234
param **.client4.app[0].connectAddress "\"\""
param **.client4.app[0].connectPort 1234
param *.configurator.dumpAddresses true
param *.configurator.dumpTopology true
param *.configurator.dumpLinks true
param *.configurator.dumpRoutes true

vector 0 scenario.client0.ppp[0].ppp transmissionState:vector ETV
attr interpolationmode sample-hold
attr source transmissionStateChanged
attr title "tx state, vector"
vector 1 scenario.client0.ppp[1].ppp transmissionState:vector ETV
attr interpolationmode sample-hold
attr source transmissionStateChanged
attr title "tx state, vector"
vector 2 scenario.client0.ppp[2].ppp transmissionState:vector ETV
attr interpolationmode sample-hold
attr source transmissionStateChanged
attr title "tx state, vector"
vector 3 scenario.client0.ppp[3].ppp transmissionState:vector ETV
attr interpolationmode sample-hold
attr source transmissionStateChanged
attr title "tx state, vector"
vector 4 scenario.client1.ppp[0].ppp transmissionState:vector ETV
attr interpolationmode sample-hold
attr source transmissionStateChanged
attr title "tx state, vector"
vector 5 scenario.client1.ppp[1].ppp transmissionState:vector ETV
attr interpolationmode sample-hold
attr source transmissionStateChanged
attr title "tx state, vector"
vector 6 scenario.client1.ppp[2].ppp transmissionState:vector ETV
attr interpolationmode sample-hold
attr source transmissionStateChanged
attr title "tx state, vector"
vector 7 scenario.client1.ppp[3].ppp transmissionState:vector ETV
attr interpolationmode sample-hold
attr source transmissionStateChanged
attr title "tx state, vector"
vector 8 scenario.client2.ppp[0].ppp transmissionState:vector ETV
attr interpolationmode sample-hold
attr source transmissionStateChanged
attr title "tx state, vector"
vector 9 scenario.client2.ppp[1].ppp transmissionState:vector ETV
attr interpolationmode sample-hold
attr source transmissionStateChanged
attr title "tx state, vector"
vector 10 scenario.client2.ppp[2].ppp transmissionState:vector ETV
attr interpolationmode sample-hold
attr source transmissionStateChanged
attr title "tx state, vector"
vector 11 scenario.client2.ppp[3].ppp transmissionState:vector ETV
attr interpolationmode sample-hold
attr source transmissionStateChanged
attr title "tx state, vector"
vector 12 scenario.client3.ppp[0].ppp transmissionState:vector ETV
attr interpolationmode sample-hold
attr source transmissionStateChanged
attr title "tx state, vector"
vector 13 scenario.client3.ppp[1].ppp transmissionState:vector ETV
attr interpolationmode sample-hold
attr source transmissionStateChanged
attr title "tx state, vector"
vector 14 scenario.client3.ppp[2].ppp transmissionState:vector ETV
attr interpolationmode sample-hold
attr source transmissionStateChanged
attr title "tx state, vector"
vector 15 scenario.client3.ppp[3].ppp transmissionState:vector ETV
attr interpolationmode sample-hold
attr source transmissionStateChanged
attr title "tx state, vector"
vector 16 scenario.client4.ppp[0].ppp transmissionState:vector ETV
attr interpolationmode sample-hold
attr source transmissionStateChanged
attr title "tx state, vector"
vector 17 scenario.client4.ppp[1].ppp transmissionState:vector ETV
attr interpolationmode sample-hold
attr source transmissionStateChanged
attr title "tx state, vector"
vector 18 scenario.client4.ppp[2].ppp transmissionState:vector ETV
attr interpolationmode sample-hold
attr source transmissionStateChanged
attr title "tx state, vector"
vector 19 scenario.client4.ppp[3].ppp transmissionState:vector ETV
attr interpolationmode sample-hold
attr source transmissionStateChanged
attr title "tx state, vector"
vector 20 scenario.client4.tcp.conn-25 tcpRcvQueueBytes:vector ETV
attr interpolationmode sample-hold
vector 21 scenario.client4.tcp.conn-25 rcvAdv:vector ETV
attr interpolationmode sample-hold
vector 22 scenario.client4.tcp.conn-25 rcvWnd:vector ETV
attr interpolationmode sample-hold
vector 23 scenario.client4.tcp.conn-25 sndAck:vector ETV
attr interpolationmode sample-hold
vector 24 scenario.client4.ppp[2].ppp rcvdPkFromHl:vector(packetBytes) ETV
attr interpolationmode none
attr source packetReceivedFromUpper
attr title "packets received from higher layer, vector(packetBytes)"
vector 25 scenario.client4.ppp[2].ppp.queue packetPushed:vector(packetBytes) ETV
attr interpolationmode none
attr title "packet pushed, vector(packetBytes)"
vector 26 scenario.client4.ppp[2].ppp.queue queueLength:vector ETV
attr interpolationmode sample-hold
attr source "count(packetPushed) - count(packetPopped) - count(packetRemoved) - count(packetDropped)"
attr title "queue length, vector"
vector 27 scenario.client4.ppp[2].ppp.queue packetPopped:vector(packetBytes) ETV
attr interpolationmode none
attr title "packet popped, vector(packetBytes)"
vector 28 scenario.client4.ppp[2].ppp.queue queueingTime:vector ETV
attr interpolationmode none
attr source queueingTime(packetPopped)
attr title "queueing times, vector"
attr unit s
vector 29 scenario.client4.ppp[2].ppp txPk:vector(packetBytes) ETV
attr interpolationmode none
attr source packetSentToLower
attr title "packets transmitted, vector(packetBytes)"
vector 30 scenario.client2.ppp[3].ppp rxPkOk:vector(packetBytes) ETV
attr interpolationmode none
attr source rxPkOk
attr title "packets received OK, vector(packetBytes)"
vector 31 scenario.client2.ppp[3].ppp passedUpPk:vector(packetBytes) ETV
attr interpolationmode none
attr source packetSentToUpper
attr title "packets passed to higher layer, vector(packetBytes)"
vector 32 scenario.client2.tcp.conn-2 rcvSeq:vector ETV
attr interpolationmode sample-hold
vector 33 scenario.client2.tcp.conn-2 rcvAck:vector ETV
attr interpolationmode sample-hold
vector 34 scenario.client2.tcp.conn-26 rcvAdv:vector ETV
attr interpolationmode sample-hold
vector 35 scenario.client2.tcp.conn-26 sndWnd:vector ETV
attr interpolationmode sample-hold
vector 36 scenario.client2.tcp.conn-26 tcpRcvQueueBytes:vector ETV
attr interpolationmode sample-hold
vector 37 scenario.client2.tcp.conn-26 rcvWnd:vector ETV
attr interpolationmode sample-hold
vector 38 scenario.client2.tcp.conn-26 sndAck:vector ETV
attr interpolationmode sample-hold
vector 39 scenario.client2.ppp[3].ppp rcvdPkFromHl:vector(packetBytes) ETV
attr interpolationmode none
attr source packetReceivedFromUpper
attr title "packets received from higher layer, vector(packetBytes)"
vector 40 scenario.client2.ppp[3].ppp.queue packetPushed:vector(packetBytes) ETV
attr interpolationmode none
attr title "packet pushed, vector(packetBytes)"
vector 41 scenario.client2.ppp[3].ppp.queue queueLength:vector ETV
attr interpolationmode sample-hold
attr source "count(packetPushed) - count(packetPopped) - count(packetRemoved) - count(packetDropped)"
attr title "queue length, vector"
vector 42 scenario.client2.ppp[3].ppp.queue packetPopped:vector(packetBytes) ETV
attr interpolationmode none
attr title "packet popped, vector(packetBytes)"
vector 43 scenario.client2.ppp[3].ppp.queue queueingTime:vector ETV
attr interpolationmode none
attr source queueingTime(packetPopped)
attr title "queueing times, vector"
attr unit s
vector 44 scenario.client2.ppp[3].ppp txPk:vector(packetBytes) ETV
attr interpolationmode none
attr source packetSentToLower
attr title "packets transmitted, vector(packetBytes)"
vector 45 scenario.client4.ppp[2].ppp rxPkOk:vector(packetBytes) ETV
attr interpolationmode none
attr source rxPkOk
attr title "packets received OK, vector(packetBytes)"
vector 46 scenario.client4.ppp[2].ppp passedUpPk:vector(packetBytes) ETV
attr interpolationmode none
attr source packetSentToUpper
attr title "packets passed to higher layer, vector(packetBytes)"
vector 47 scenario.client4.tcp.conn-25 rcvSeq:vector ETV
attr interpolationmode sample-hold
vector 48 scenario.client4.tcp.conn-25 rcvAck:vector ETV
attr interpolationmode sample-hold
vector 49 scenario.client4.tcp.conn-25 sndWnd:vector ETV
attr interpolationmode sample-hold
vector 50 scenario.client4.tcp.conn-25 unacked:vector ETV
attr interpolationmode sample-hold
vector 51 scenario.client2.tcp.conn-26 rcvSeq:vector ETV
attr interpolationmode sample-hold
vector 52 scenario.client2.tcp.conn-26 rcvAck:vector ETV
attr interpolationmode sample-hold
vector 53 scenario.client2.tcp.conn-26 unacked:vector ETV
attr interpolationmode sample-hold
vector 54 scenario.client2.tcp.conn-26 cwnd:vector ETV
attr interpolationmode sample-hold
vector 55 scenario.client2.tcp.conn-26 ssthresh:vector ETV
attr interpolationmode sample-hold
vector 56 scenario.client2.tcp.conn-26 dupAcks:vector ETV
attr interpolationmode sample-hold
vector 57 scenario.client4.tcp.conn-25 rtt:vector ETV
attr interpolationmode sample-hold
vector 58 scenario.client4.tcp.conn-25 srtt:vector ETV
attr interpolationmode sample-hold
vector 59 scenario.client4.tcp.conn-25 rttvar:vector ETV
attr interpolationmode sample-hold
vector 60 scenario.client4.tcp.conn-25 rto:vector ETV
attr interpolationmode sample-hold
vector 61 scenario.client4.tcp.conn-25 cwnd:vector ETV
attr interpolationmode sample-hold
vector 62 scenario.client4.tcp.conn-25 ssthresh:vector ETV
attr interpolationmode sample-hold
vector 63 scenario.client4.tcp.conn-25 dupAcks:vector ETV
attr interpolationmode sample-hold
vector 64 scenario.client4.tcp.conn-27 tcpRcvQueueBytes:vector ETV
attr interpolationmode sample-hold
vector 65 scenario.client4.tcp.conn-27 rcvAdv:vector ETV
attr interpolationmode sample-hold
vector 66 scenario.client4.tcp.conn-27 rcvWnd:vector ETV
attr interpolationmode sample-hold
vector 67 scenario.client4.tcp.conn-27 sndAck:vector ETV
attr interpolationmode sample-hold
vector 68 scenario.client4.ppp[0].ppp rcvdPkFromHl:vector(packetBytes) ETV
attr interpolationmode none
attr source packetReceivedFromUpper
attr title "packets received from higher layer, vector(packetBytes)"
vector 69 scenario.client4.ppp[0].ppp.queue packetPushed:vector(packetBytes) ETV
attr interpolationmode none
attr title "packet pushed, vector(packetBytes)"
vector 70 scenario.client4.ppp[0].ppp.queue queueLength:vector ETV
attr interpolationmode sample-hold
attr source "count(packetPushed) - count(packetPopped) - count(packetRemoved) - count(packetDropped)"
attr title "queue length, vector"
vector 71 scenario.client4.ppp[0].ppp.queue packetPopped:vector(packetBytes) ETV
attr interpolationmode none
attr title "packet popped, vector(packetBytes)"
vector 72 scenario.client4.ppp[0].ppp.queue queueingTime:vector ETV
attr interpolationmode none
attr source queueingTime(packetPopped)
attr title "queueing times, vector"
attr unit s
vector 73 scenario.client4.ppp[0].ppp txPk:vector(packetBytes) ETV
attr interpolationmode none
attr source packetSentToLower
attr title "packets transmitted, vector(packetBytes)"
vector 74 scenario.client0.ppp[3].ppp rxPkOk:vector(packetBytes) ETV
attr interpolationmode none
attr source rxPkOk
attr title "packets received OK, vector(packetBytes)"
vector 75 scenario.client0.ppp[3].ppp passedUpPk:vector(packetBytes) ETV
attr interpolationmode none
attr source packetSentToUpper
attr title "packets passed to higher layer, vector(packetBytes)"
vector 76 scenario.client0.tcp.conn-0 rcvSeq:vector ETV
attr interpolationmode sample-hold
vector 77 scenario.client0.tcp.conn-0 rcvAck:vector ETV
attr interpolationmode sample-hold
vector 78 scenario.client0.tcp.conn-28 rcvAdv:vector ETV
attr interpolationmode sample-hold
vector 79 scenario.client0.tcp.conn-28 sndWnd:vector ETV
attr interpolationmode sample-hold
vector 80 scenario.client0.tcp.conn-28 tcpRcvQueueBytes:vector ETV
attr interpolationmode sample-hold
vector 81 scenario.client0.tcp.conn-28 rcvWnd:vector ETV
attr interpolationmode sample-hold
vector 82 scenario.client0.tcp.conn-28 sndAck:vector ETV
attr interpolationmode sample-hold
vector 83 scenario.client0.ppp[3].ppp rcvdPkFromHl:vector(packetBytes) ETV
attr interpolationmode none
attr source packetReceivedFromUpper
attr title "packets received from higher layer, vector(packetBytes)"
vector 84 scenario.client0.ppp[3].ppp.queue packetPushed:vector(packetBytes) ETV
attr interpolationmode none
attr title "packet pushed, vector(packetBytes)"
vector 85 scenario.client0.ppp[3].ppp.queue queueLength:vector ETV
attr interpolationmode sample-hold
attr source "count(packetPushed) - count(packetPopped) - count(packetRemoved) - count(packetDropped)"
attr title "queue length, vector"
vector 86 scenario.client0.ppp[3].ppp.queue packetPopped:vector(packetBytes) ETV
attr interpolationmode none
attr title "packet popped, vector(packetBytes)"
vector 87 scenario.client0.ppp[3].ppp.queue queueingTime:vector ETV
attr interpolationmode none
attr source queueingTime(packetPopped)
attr title "queueing times, vector"
attr unit s
vector 88 scenario.client0.ppp[3].ppp txPk:vector(packetBytes) ETV
attr interpolationmode none
attr source packetSentToLower
attr title "packets transmitted, vector(packetBytes)"
vector 89 scenario.client4.ppp[0].ppp rxPkOk:vector(packetBytes) ETV
attr interpolationmode none
attr source rxPkOk
attr title "packets received OK, vector(packetBytes)"
vector 90 scenario.client4.ppp[0].ppp passedUpPk:vector(packetBytes) ETV
attr interpolationmode none
attr source packetSentToUpper
attr title "packets passed to higher layer, vector(packetBytes)"
vector 91 scenario.client4.tcp.conn-27 rcvSeq:vector ETV
attr interpolationmode sample-hold
vector 92 scenario.client4.tcp.conn-27 rcvAck:vector ETV
attr interpolationmode sample-hold
vector 93 scenario.client4.tcp.conn-27 sndWnd:vector ETV
attr interpolationmode sample-hold
vector 94 scenario.client4.tcp.conn-27 unacked:vector ETV
attr interpolationmode sample-hold
vector 95 scenario.client0.tcp.conn-28 rcvSeq:vector ETV
attr interpolationmode sample-hold
vector 96 scenario.client0.tcp.conn-28 rcvAck:vector ETV
attr interpolationmode sample-hold
vector 97 scenario.client0.tcp.conn-28 unacked:vector ETV
attr interpolationmode sample-hold
vector 98 scenario.client0.tcp.conn-28 cwnd:vector ETV
attr interpolationmode sample-hold
vector 99 scenario.client0.tcp.conn-28 ssthresh:vector ETV
attr interpolationmode sample-hold
vector 100 scenario.client0.tcp.conn-28 dupAcks:vector ETV
attr interpolationmode sample-hold
vector 101 scenario.client4.tcp.conn-27 rtt:vector ETV
attr interpolationmode sample-hold
vector 102 scenario.client4.tcp.conn-27 srtt:vector ETV
attr interpolationmode sample-hold
vector 103 scenario.client4.tcp.conn-27 rttvar:vector ETV
attr interpolationmode sample-hold
vector 104 scenario.client4.tcp.conn-27 rto:vector ETV
attr interpolationmode sample-hold
vector 105 scenario.client4.tcp.conn-27 cwnd:vector ETV
attr interpolationmode sample-hold
vector 106 scenario.client4.tcp.conn-27 ssthresh:vector ETV
attr interpolationmode sample-hold
vector 107 scenario.client4.tcp.conn-27 dupAcks:vector ETV
attr interpolationmode sample-hold
vector 108 scenario.client0.tcp.conn-29 tcpRcvQueueBytes:vector ETV
attr interpolationmode sample-hold
vector 109 scenario.client0.tcp.conn-29 rcvAdv:vector ETV
attr interpolationmode sample-hold
vector 110 scenario.client0.tcp.conn-29 rcvWnd:vector ETV
attr interpolationmode sample-hold
vector 111 scenario.client0.tcp.conn-29 sndAck:vector ETV
attr interpolationmode sample-hold
vector 112 scenario.client4.tcp.conn-4 rcvSeq:vector ETV
attr interpolationmode sample-hold
vector 113 scenario.client4.tcp.conn-4 rcvAck:vector ETV
attr interpolationmode sample-hold
vector 114 scenario.client4.tcp.conn-30 rcvAdv:vector ETV
attr interpolationmode sample-hold
vector 115 scenario.client4.tcp.conn-30 sndWnd:vector ETV
attr interpolationmode sample-hold
vector 116 scenario.client4.tcp.conn-30 tcpRcvQueueBytes:vector ETV
attr interpolationmode sample-hold
vector 117 scenario.client4.tcp.conn-30 rcvWnd:vector ETV
attr interpolationmode sample-hold
vector 118 scenario.client4.tcp.conn-30 sndAck:vector ETV
attr interpolationmode sample-hold
vector 119 scenario.client0.tcp.conn-29 rcvSeq:vector ETV
attr interpolationmode sample-hold
vector 120 scenario.client0.tcp.conn-29 rcvAck:vector ETV
attr interpolationmode sample-hold
vector 121 scenario.client0.tcp.conn-29 sndWnd:vector ETV
attr interpolationmode sample-hold
vector 122 scenario.client0.tcp.conn-29 unacked:vector ETV
attr interpolationmode sample-hold
vector 123 scenario.client4.tcp.conn-30 rcvSeq:vector ETV
attr interpolationmode sample-hold
vector 124 scenario.client4.tcp.conn-30 rcvAck:vector ETV
attr interpolationmode sample-hold
vector 125 scenario.client4.tcp.conn-30 unacked:vector ETV
attr interpolationmode sample-hold
vector 126 scenario.client4.tcp.conn-30 cwnd:vector ETV
attr interpolationmode sample-hold
vector 127 scenario.client4.tcp.conn-30 ssthresh:vector ETV
attr interpolationmode sample-hold
vector 128 scenario.client4.tcp.conn-30 dupAcks:vector ETV
attr interpolationmode sample-hold
vector 129 scenario.client0.tcp.conn-29 rtt:vector ETV
attr interpolationmode sample-hold
vector 130 scenario.client0.tcp.conn-29 srtt:vector ETV
attr interpolationmode sample-hold
vector 131 scenario.client0.tcp.conn-29 rttvar:vector ETV
attr interpolationmode sample-hold
vector 132 scenario.client0.tcp.conn-29 rto:vector ETV
attr interpolationmode sample-hold
vector 133 scenario.client0.tcp.conn-29 cwnd:vector ETV
attr interpolationmode sample-hold
vector 134 scenario.client0.tcp.conn-29 ssthresh:vector ETV
attr interpolationmode sample-hold
vector 135 scenario.client0.tcp.conn-29 dupAcks:vector ETV
attr interpolationmode sample-hold
vector 136 scenario.client3.tcp.conn-31 tcpRcvQueueBytes:vector ETV
attr interpolationmode sample-hold
vector 137 scenario.client3.tcp.conn-31 rcvAdv:vector ETV
attr interpolationmode sample-hold
vector 138 scenario.client3.tcp.conn-31 rcvWnd:vector ETV
attr interpolationmode sample-hold
vector 139 scenario.client3.tcp.conn-31 sndAck:vector ETV
attr interpolationmode sample-hold
vector 140 scenario.client3.ppp[2].ppp rcvdPkFromHl:vector(packetBytes) ETV
attr interpolationmode none
attr source packetReceivedFromUpper
attr title "packets received from higher layer, vector(packetBytes)"
vector 141 scenario.client3.ppp[2].ppp.queue packetPushed:vector(packetBytes) ETV
attr interpolationmode none
attr title "packet pushed, vector(packetBytes)"
vector 142 scenario.client3.ppp[2].ppp.queue queueLength:vector ETV
attr interpolationmode sample-hold
attr source "count(packetPushed) - count(packetPopped) - count(packetRemoved) - count(packetDropped)"
attr title "queue length, vector"
vector 143 scenario.client3.ppp[2].ppp.queue packetPopped:vector(packetBytes) ETV
attr interpolationmode none
attr title "packet popped, vector(packetBytes)"
vector 144 scenario.client3.ppp[2].ppp.queue queueingTime:vector ETV
attr interpolationmode none
attr source queueingTime(packetPopped)
attr title "queueing times, vector"
attr unit s
vector 145 scenario.client3.ppp[2].ppp txPk:vector(packetBytes) ETV
attr interpolationmode none
attr source packetSentToLower
attr title "packets transmitted, vector(packetBytes)"
vector 146 scenario.client2.ppp[2].ppp rxPkOk:vector(packetBytes) ETV
attr interpolationmode none
attr source rxPkOk
attr title "packets received OK, vector(packetBytes)"
vector 147 scenario.client2.ppp[2].ppp passedUpPk:vector(packetBytes) ETV
attr interpolationmode none
attr source packetSentToUpper
attr title "packets passed to higher layer, vector(packetBytes)"
vector 148 scenario.client2.tcp.conn-32 rcvAdv:vector ETV
attr interpolationmode sample-hold
vector 149 scenario.client2.tcp.conn-32 sndWnd:vector ETV
attr interpolationmode sample-hold
vector 150 scenario.client2.tcp.conn-32 tcpRcvQueueBytes:vector ETV
attr interpolationmode sample-hold
vector 151 scenario.client2.tcp.conn-32 rcvWnd:vector ETV
attr interpolationmode sample-hold
vector 152 scenario.client2.tcp.conn-32 sndAck:vector ETV
attr interpolationmode sample-hold
vector 153 scenario.client2.ppp[2].ppp rcvdPkFromHl:vector(packetBytes) ETV
attr interpolationmode none
attr source packetReceivedFromUpper
attr title "packets received from higher layer, vector(packetBytes)"
vector 154 scenario.client2.ppp[2].ppp.queue packetPushed:vector(packetBytes) ETV
attr interpolationmode none
attr title "packet pushed, vector(packetBytes)"
vector 155 scenario.client2.ppp[2].ppp.queue queueLength:vector ETV
attr interpolationmode sample-hold
attr source "count(packetPushed) - count(packetPopped) - count(packetRemoved) - count(packetDropped)"
attr title "queue length, vector"
vector 156 scenario.client2.ppp[2].ppp.queue packetPopped:vector(packetBytes) ETV
attr interpolationmode none
attr title "packet popped, vector(packetBytes)"
vector 157 scenario.client2.ppp[2].ppp.queue queueingTime:vector ETV
attr interpolationmode none
attr source queueingTime(packetPopped)
attr title "queueing times, vector"
attr unit s
vector 158 scenario.client2.ppp[2].ppp txPk:vector(packetBytes) ETV
attr interpolationmode none
attr source packetSentToLower
attr title "packets transmitted, vector(packetBytes)"
vector 159 scenario.client3.ppp[2].ppp rxPkOk:vector(packetBytes) ETV
attr interpolationmode none
attr source rxPkOk
attr title "packets received OK, vector(packetBytes)"
vector 160 scenario.client3.ppp[2].ppp passedUpPk:vector(packetBytes) ETV
attr interpolationmode none
attr source packetSentToUpper
attr title "packets passed to higher layer, vector(packetBytes)"
vector 161 scenario.client3.tcp.conn-31 rcvSeq:vector ETV
attr interpolationmode sample-hold
vector 162 scenario.client3.tcp.conn-31 rcvAck:vector ETV
attr interpolationmode sample-hold
vector 163 scenario.client3.tcp.conn-31 sndWnd:vector ETV
attr interpolationmode sample-hold
vector 164 scenario.client3.tcp.conn-31 unacked:vector ETV
attr interpolationmode sample-hold
vector 165 scenario.client2.tcp.conn-32 rcvSeq:vector ETV
attr interpolationmode sample-hold
vector 166 scenario.client2.tcp.conn-32 rcvAck:vector ETV
attr interpolationmode sample-hold
vector 167 scenario.client2.tcp.conn-32 unacked:vector ETV
attr interpolationmode sample-hold
vector 168 scenario.client2.tcp.conn-32 cwnd:vector ETV
attr interpolationmode sample-hold
vector 169 scenario.client2.tcp.conn-32 ssthresh:vector ETV
attr interpolationmode sample-hold
vector 170 scenario.client2.tcp.conn-32 dupAcks:vector ETV
attr interpolationmode sample-hold
vector 171 scenario.client3.tcp.conn-31 rtt:vector ETV
attr interpolationmode sample-hold
vector 172 scenario.client3.tcp.conn-31 srtt:vector ETV
attr interpolationmode sample-hold
vector 173 scenario.client3.tcp.conn-31 rttvar:vector ETV
attr interpolationmode sample-hold
vector 174 scenario.client3.tcp.conn-31 rto:vector ETV
attr interpolationmode sample-hold
vector 175 scenario.client3.tcp.conn-31 cwnd:vector ETV
attr interpolationmode sample-hold
vector 176 scenario.client3.tcp.conn-31 ssthresh:vector ETV
attr interpolationmode sample-hold
vector 177 scenario.client3.tcp.conn-31 dupAcks:vector ETV
attr interpolationmode sample-hold
vector 178 scenario.client0.tcp.conn-33 tcpRcvQueueBytes:vector ETV
attr interpolationmode sample-hold
vector 179 scenario.client0.tcp.conn-33 rcvAdv:vector ETV
attr interpolationmode sample-hold
vector 180 scenario.client0.tcp.conn-33 rcvWnd:vector ETV
attr interpolationmode sample-hold
vector 181 scenario.client0.tcp.conn-33 sndAck:vector ETV
attr interpolationmode sample-hold
vector 182 scenario.client0.ppp[0].ppp rcvdPkFromHl:vector(packetBytes) ETV
attr interpolationmode none
attr source packetReceivedFromUpper
attr title "packets received from higher layer, vector(packetBytes)"
vector 183 scenario.client0.ppp[0].ppp.queue packetPushed:vector(packetBytes) ETV
attr interpolationmode none
attr title "packet pushed, vector(packetBytes)"
vector 184 scenario.client0.ppp[0].ppp.queue queueLength:vector ETV
attr interpolationmode sample-hold
attr source "count(packetPushed) - count(packetPopped) - count(packetRemoved) - count(packetDropped)"
attr title "queue length, vector"
vector 185 scenario.client0.ppp[0].ppp.queue packetPopped:vector(packetBytes) ETV
attr interpolationmode none
attr title "packet popped, vector(packetBytes)"
vector 186 scenario.client0.ppp[0].ppp.queue queueingTime:vector ETV
attr interpolationmode none
attr source queueingTime(packetPopped)
attr title "queueing times, vector"
attr unit s
vector 187 scenario.client0.ppp[0].ppp txPk:vector(packetBytes) ETV
attr interpolationmode none
attr source packetSentToLower
attr title "packets transmitted, vector(packetBytes)"
vector 188 scenario.client1.ppp[0].ppp rxPkOk:vector(packetBytes) ETV
attr interpolationmode none
attr source rxPkOk
attr title "packets received OK, vector(packetBytes)"
vector 189 scenario.client1.ppp[0].ppp passedUpPk:vector(packetBytes) ETV
attr interpolationmode none
attr source packetSentToUpper
attr title "packets passed to higher layer, vector(packetBytes)"
vector 190 scenario.client1.tcp.conn-1 rcvSeq:vector ETV
attr interpolationmode sample-hold
vector 191 scenario.client1.tcp.conn-1 rcvAck:vector ETV
attr interpolationmode sample-hold
vector 192 scenario.client1.tcp.conn-34 rcvAdv:vector ETV
attr interpolationmode sample-hold
vector 193 scenario.client1.tcp.conn-34 sndWnd:vector ETV
attr interpolationmode sample-hold
vector 194 scenario.client1.tcp.conn-34 tcpRcvQueueBytes:vector ETV
attr interpolationmode sample-hold
vector 195 scenario.client1.tcp.conn-34 rcvWnd:vector ETV
attr interpolationmode sample-hold
vector 196 scenario.client1.tcp.conn-34 sndAck:vector ETV
attr interpolationmode sample-hold
vector 197 scenario.client1.ppp[0].ppp rcvdPkFromHl:vector(packetBytes) ETV
attr interpolationmode none
attr source packetReceivedFromUpper
attr title "packets received from higher layer, vector(packetBytes)"
vector 198 scenario.client1.ppp[0].ppp.queue packetPushed:vector(packetBytes) ETV
attr interpolationmode none
attr title "packet pushed, vector(packetBytes)"
vector 199 scenario.client1.ppp[0].ppp.queue queueLength:vector ETV
attr interpolationmode sample-hold
attr source "count(packetPushed) - count(packetPopped) - count(packetRemoved) - count(packetDropped)"
attr title "queue length, vector"
vector 200 scenario.client1.ppp[0].ppp.queue packetPopped:vector(packetBytes) ETV
attr interpolationmode none
attr title "packet popped, vector(packetBytes)"
vector 201 scenario.client1.ppp[0].ppp.queue queueingTime:vector ETV
attr interpolationmode none
attr source queueingTime(packetPopped)
attr title "queueing times, vector"
attr unit s
vector 202 scenario.client1.ppp[0].ppp txPk:vector(packetBytes) ETV
attr interpolationmode none
attr source packetSentToLower
attr title "packets transmitted, vector(packetBytes)"
vector 203 scenario.client0.ppp[0].ppp rxPkOk:vector(packetBytes) ETV
attr interpolationmode none
attr source rxPkOk
attr title "packets received OK, vector(packetBytes)"
vector 204 scenario.client0.ppp[0].ppp passedUpPk:vector(packetBytes) ETV
attr interpolationmode none
attr source packetSentToUpper
attr title "packets passed to higher layer, vector(packetBytes)"
vector 205 scenario.client0.tcp.conn-33 rcvSeq:vector ETV
attr interpolationmode sample-hold
vector 206 scenario.client0.tcp.conn-33 rcvAck:vector ETV
attr interpolationmode sample-hold
vector 207 scenario.client0.tcp.conn-33 sndWnd:vector ETV
attr interpolationmode sample-hold
vector 208 scenario.client0.tcp.conn-33 unacked:vector ETV
attr interpolationmode sample-hold
vector 209 scenario.client1.tcp.conn-34 rcvSeq:vector ETV
attr interpolationmode sample-hold
vector 210 scenario.client1.tcp.conn-34 rcvAck:vector ETV
attr interpolationmode sample-hold
vector 211 scenario.client1.tcp.conn-34 unacked:vector ETV
attr interpolationmode sample-hold
vector 212 scenario.client1.tcp.conn-34 cwnd:vector ETV
attr interpolationmode sample-hold
vector 213 scenario.client1.tcp.conn-34 ssthresh:vector ETV
attr interpolationmode sample-hold
vector 214 scenario.client1.tcp.conn-34 dupAcks:vector ETV
attr interpolationmode sample-hold
vector 215 scenario.client0.tcp.conn-33 rtt:vector ETV
attr interpolationmode sample-hold
vector 216 scenario.client0.tcp.conn-33 srtt:vector ETV
attr interpolationmode sample-hold
vector 217 scenario.client0.tcp.conn-33 rttvar:vector ETV
attr interpolationmode sample-hold
vector 218 scenario.client0.tcp.conn-33 rto:vector ETV
attr interpolationmode sample-hold
vector 219 scenario.client0.tcp.conn-33 cwnd:vector ETV
attr interpolationmode sample-hold
vector 220 scenario.client0.tcp.conn-33 ssthresh:vector ETV
attr interpolationmode sample-hold
vector 221 scenario.client0.tcp.conn-33 dupAcks:vector ETV
attr interpolationmode sample-hold
vector 222 scenario.client2.tcp.conn-35 tcpRcvQueueBytes:vector ETV
attr interpolationmode sample-hold
vector 223 scenario.client2.tcp.conn-35 rcvAdv:vector ETV
attr interpolationmode sample-hold
vector 224 scenario.client2.tcp.conn-35 rcvWnd:vector ETV
attr interpolationmode sample-hold
vector 225 scenario.client2.tcp.conn-35 sndAck:vector ETV
attr interpolationmode sample-hold
vector 226 scenario.client4.tcp.conn-36 rcvAdv:vector ETV
attr interpolationmode sample-hold
vector 227 scenario.client4.tcp.conn-36 sndWnd:vector ETV
attr interpolationmode sample-hold
vector 228 scenario.client4.tcp.conn-36 tcpRcvQueueBytes:vector ETV
attr interpolationmode sample-hold
vector 229 scenario.client4.tcp.conn-36 rcvWnd:vector ETV
attr interpolationmode sample-hold
vector 230 scenario.client4.tcp.conn-36 sndAck:vector ETV
attr interpolationmode sample-hold
vector 231 scenario.client2.tcp.conn-35 rcvSeq:vector ETV
attr interpolationmode sample-hold
vector 232 scenario.client2.tcp.conn-35 rcvAck:vector ETV
attr interpolationmode sample-hold
vector 233 scenario.client2.tcp.conn-35 sndWnd:vector ETV
attr interpolationmode sample-hold
vector 234 scenario.client2.tcp.conn-35 unacked:vector ETV
attr interpolationmode sample-hold
vector 235 scenario.client4.tcp.conn-36 rcvSeq:vector ETV
attr interpolationmode sample-hold
vector 236 scenario.client4.tcp.conn-36 rcvAck:vector ETV
attr interpolationmode sample-hold
vector 237 scenario.client4.tcp.conn-36 unacked:vector ETV
attr interpolationmode sample-hold
vector 238 scenario.client4.tcp.conn-36 cwnd:vector ETV
attr interpolationmode sample-hold
vector 239 scenario.client4.tcp.conn-36 ssthresh:vector ETV
attr interpolationmode sample-hold
vector 240 scenario.client4.tcp.conn-36 dupAcks:vector ETV
attr interpolationmode sample-hold
vector 241 scenario.client2.tcp.conn-35 rtt:vector ETV
attr interpolationmode sample-hold
vector 242 scenario.client2.tcp.conn-35 srtt:vector ETV
attr interpolationmode sample-hold
vector 243 scenario.client2.tcp.conn-35 rttvar:vector ETV
attr interpolationmode sample-hold
vector 244 scenario.client2.tcp.conn-35 rto:vector ETV
attr interpolationmode sample-hold
vector 245 scenario.client2.tcp.conn-35 cwnd:vector ETV
attr interpolationmode sample-hold
vector 246 scenario.client2.tcp.conn-35 ssthresh:vector ETV
attr interpolationmode sample-hold
vector 247 scenario.client2.tcp.conn-35 dupAcks:vector ETV
attr interpolationmode sample-hold
vector 248 scenario.client4.tcp.conn-37 tcpRcvQueueBytes:vector ETV
attr interpolationmode sample-hold
vector 249 scenario.client4.tcp.conn-37 rcvAdv:vector ETV
attr interpolationmode sample-hold
vector 250 scenario.client4.tcp.conn-37 rcvWnd:vector ETV
attr interpolationmode sample-hold
vector 251 scenario.client4.tcp.conn-37 sndAck:vector ETV
attr interpolationmode sample-hold
vector 252 scenario.client4.ppp[1].ppp rcvdPkFromHl:vector(packetBytes) ETV
attr interpolationmode none
attr source packetReceivedFromUpper
attr title "packets received from higher layer, vector(packetBytes)"
vector 253 scenario.client4.ppp[1].ppp.queue packetPushed:vector(packetBytes) ETV
attr interpolationmode none
attr title "packet pushed, vector(packetBytes)"
vector 254 scenario.client4.ppp[1].ppp.queue queueLength:vector ETV
attr interpolationmode sample-hold
attr source "count(packetPushed) - count(packetPopped) - count(packetRemoved) - count(packetDropped)"
attr title "queue length, vector"
vector 255 scenario.client4.ppp[1].ppp.queue packetPopped:vector(packetBytes) ETV
attr interpolationmode none
attr title "packet popped, vector(packetBytes)"
vector 256 scenario.client4.ppp[1].ppp.queue queueingTime:vector ETV
attr interpolationmode none
attr source queueingTime(packetPopped)
attr title "queueing times, vector"
attr unit s
vector 257 scenario.client4.ppp[1].ppp txPk:vector(packetBytes) ETV
attr interpolationmode none
attr source packetSentToLower
attr title "packets transmitted, vector(packetBytes)"
vector 258 scenario.client1.ppp[3].ppp rxPkOk:vector(packetBytes) ETV
attr interpolationmode none
attr source rxPkOk
attr title "packets received OK, vector(packetBytes)"
vector 259 scenario.client1.ppp[3].ppp passedUpPk:vector(packetBytes) ETV
attr interpolationmode none
attr source packetSentToUpper
attr title "packets passed to higher layer, vector(packetBytes)"
vector 260 scenario.client1.tcp.conn-38 rcvAdv:vector ETV
attr interpolationmode sample-hold
vector 261 scenario.client1.tcp.conn-38 sndWnd:vector ETV
attr interpolationmode sample-hold
vector 262 scenario.client1.tcp.conn-38 tcpRcvQueueBytes:vector ETV
attr interpolationmode sample-hold
vector 263 scenario.client1.tcp.conn-38 rcvWnd:vector ETV
attr interpolationmode sample-hold
vector 264 scenario.client1.tcp.conn-38 sndAck:vector ETV
attr interpolationmode sample-hold
vector 265 scenario.client1.ppp[3].ppp rcvdPkFromHl:vector(packetBytes) ETV
attr interpolationmode none
attr source packetReceivedFromUpper
attr title "packets received from higher layer, vector(packetBytes)"
vector 266 scenario.client1.ppp[3].ppp.queue packetPushed:vector(packetBytes) ETV
attr interpolationmode none
attr title "packet pushed, vector(packetBytes)"
vector 267 scenario.client1.ppp[3].ppp.queue queueLength:vector ETV
attr interpolationmode sample-hold
attr source "count(packetPushed) - count(packetPopped) - count(packetRemoved) - count(packetDropped)"
attr title "queue length, vector"
vector 268 scenario.client1.ppp[3].ppp.queue packetPopped:vector(packetBytes) ETV
attr interpolationmode none
attr title "packet popped, vector(packetBytes)"
vector 269 scenario.client1.ppp[3].ppp.queue queueingTime:vector ETV
attr interpolationmode none
attr source queueingTime(packetPopped)
attr title "queueing times, vector"
attr unit s
vector 270 scenario.client1.ppp[3].ppp txPk:vector(packetBytes) ETV
attr interpolationmode none
attr source packetSentToLower
attr title "packets transmitted, vector(packetBytes)"
vector 271 scenario.client4.ppp[1].ppp rxPkOk:vector(packetBytes) ETV
attr interpolationmode none
attr source rxPkOk
attr title "packets received OK, vector(packetBytes)"
vector 272 scenario.client4.ppp[1].ppp passedUpPk:vector(packetBytes) ETV
attr interpolationmode none
attr source packetSentToUpper
attr title "packets passed to higher layer, vector(packetBytes)"
vector 273 scenario.client4.tcp.conn-37 rcvSeq:vector ETV
attr interpolationmode sample-hold
vector 274 scenario.client4.tcp.conn-37 rcvAck:vector ETV
attr interpolationmode sample-hold
vector 275 scenario.client4.tcp.conn-37 sndWnd:vector ETV
attr interpolationmode sample-hold
vector 276 scenario.client4.tcp.conn-37 unacked:vector ETV
attr interpolationmode sample-hold
vector 277 scenario.client1.tcp.conn-38 rcvSeq:vector ETV
attr interpolationmode sample-hold
vector 278 scenario.client1.tcp.conn-38 rcvAck:vector ETV
attr interpolationmode sample-hold
vector 279 scenario.client1.tcp.conn-38 unacked:vector ETV
attr interpolationmode sample-hold
vector 280 scenario.client1.tcp.conn-38 cwnd:vector ETV
attr interpolationmode sample-hold
vector 281 scenario.client1.tcp.conn-38 ssthresh:vector ETV
attr interpolationmode sample-hold
vector 282 scenario.client1.tcp.conn-38 dupAcks:vector ETV
attr interpolationmode sample-hold
vector 283 scenario.client4.tcp.conn-37 rtt:vector ETV
attr interpolationmode sample-hold
vector 284 scenario.client4.tcp.conn-37 srtt:vector ETV
attr interpolationmode sample-hold
vector 285 scenario.client4.tcp.conn-37 rttvar:vector ETV
attr interpolationmode sample-hold
vector 286 scenario.client4.tcp.conn-37 rto:vector ETV
attr interpolationmode sample-hold
vector 287 scenario.client4.tcp.conn-37 cwnd:vector ETV
attr interpolationmode sample-hold
vector 288 scenario.client4.tcp.conn-37 ssthresh:vector ETV
attr interpolationmode sample-hold
vector 289 scenario.client4.tcp.conn-37 dupAcks:vector ETV
attr interpolationmode sample-hold
vector 290 scenario.client3.tcp.conn-39 tcpRcvQueueBytes:vector ETV
attr interpolationmode sample-hold
vector 291 scenario.client3.tcp.conn-39 rcvAdv:vector ETV
attr interpolationmode sample-hold
vector 292 scenario.client3.tcp.conn-39 rcvWnd:vector ETV
attr interpolationmode sample-hold
vector 293 scenario.client3.tcp.conn-39 sndAck:vector ETV
attr interpolationmode sample-hold
vector 294 scenario.client3.ppp[1].ppp rcvdPkFromHl:vector(packetBytes) ETV
attr interpolationmode none
attr source packetReceivedFromUpper
attr title "packets received from higher layer, vector(packetBytes)"
vector 295 scenario.client3.ppp[1].ppp.queue packetPushed:vector(packetBytes) ETV
attr interpolationmode none
attr title "packet pushed, vector(packetBytes)"
vector 296 scenario.client3.ppp[1].ppp.queue queueLength:vector ETV
attr interpolationmode sample-hold
attr source "count(packetPushed) - count(packetPopped) - count(packetRemoved) - count(packetDropped)"
attr title "queue length, vector"
vector 297 scenario.client3.ppp[1].ppp.queue packetPopped:vector(packetBytes) ETV
attr interpolationmode none
attr title "packet popped, vector(packetBytes)"
vector 298 scenario.client3.ppp[1].ppp.queue queueingTime:vector ETV
attr interpolationmode none
attr source queueingTime(packetPopped)
attr title "queueing times, vector"
attr unit s
vector 299 scenario.client3.ppp[1].ppp txPk:vector(packetBytes) ETV
attr interpolationmode none
attr source packetSentToLower
attr title "packets transmitted, vector(packetBytes)"
vector 300 scenario.client1.ppp[2].ppp rxPkOk:vector(packetBytes) ETV
attr interpolationmode none
attr source rxPkOk
attr title "packets received OK, vector(packetBytes)"
vector 301 scenario.client1.ppp[2].ppp passedUpPk:vector(packetBytes) ETV
attr interpolationmode none
attr source packetSentToUpper
attr title "packets passed to higher layer, vector(packetBytes)"
vector 302 scenario.client1.tcp.conn-40 rcvAdv:vector ETV
attr interpolationmode sample-hold
vector 303 scenario.client1.tcp.conn-40 sndWnd:vector ETV
attr interpolationmode sample-hold
vector 304 scenario.client1.tcp.conn-40 tcpRcvQueueBytes:vector ETV
attr interpolationmode sample-hold
vector 305 scenario.client1.tcp.conn-40 rcvWnd:vector ETV
attr interpolationmode sample-hold
vector 306 scenario.client1.tcp.conn-40 sndAck:vector ETV
attr interpolationmode sample-hold
vector 307 scenario.client1.ppp[2].ppp rcvdPkFromHl:vector(packetBytes) ETV
attr interpolationmode none
attr source packetReceivedFromUpper
attr title "packets received from higher layer, vector(packetBytes)"
vector 308 scenario.client1.ppp[2].ppp.queue packetPushed:vector(packetBytes) ETV
attr interpolationmode none
attr title "packet pushed, vector(packetBytes)"
vector 309 scenario.client1.ppp[2].ppp.queue queueLength:vector ETV
attr interpolationmode sample-hold
attr source "count(packetPushed) - count(packetPopped) - count(packetRemoved) - count(packetDropped)"
attr title "queue length, vector"
vector 310 scenario.client1.ppp[2].ppp.queue packetPopped:vector(packetBytes) ETV
attr interpolationmode none
attr title "packet popped, vector(packetBytes)"
vector 311 scenario.client1.ppp[2].ppp.queue queueingTime:vector ETV
attr interpolationmode none
attr source queueingTime(packetPopped)
attr title "queueing times, vector"
attr unit s
vector 312 scenario.client1.ppp[2].ppp txPk:vector(packetBytes) ETV
attr interpolationmode none
attr source packetSentToLower
attr title "packets transmitted, vector(packetBytes)"
vector 313 scenario.client3.ppp[1].ppp rxPkOk:vector(packetBytes) ETV
attr interpolationmode none
attr source rxPkOk
attr title "packets received OK, vector(packetBytes)"
vector 314 scenario.client3.ppp[1].ppp passedUpPk:vector(packetBytes) ETV
attr interpolationmode none
attr source packetSentToUpper
attr title "packets passed to higher layer, vector(packetBytes)"
vector 315 scenario.client3.tcp.conn-39 rcvSeq:vector ETV
attr interpolationmode sample-hold
vector 316 scenario.client3.tcp.conn-39 rcvAck:vector ETV
attr interpolationmode sample-hold
vector 317 scenario.client3.tcp.conn-39 sndWnd:vector ETV
attr interpolationmode sample-hold
vector 318 scenario.client3.tcp.conn-39 unacked:vector ETV
attr interpolationmode sample-hold
vector 319 scenario.client1.tcp.conn-40 rcvSeq:vector ETV
attr interpolationmode sample-hold
vector 320 scenario.client1.tcp.conn-40 rcvAck:vector ETV
attr interpolationmode sample-hold
vector 321 scenario.client1.tcp.conn-40 unacked:vector ETV
attr interpolationmode sample-hold
vector 322 scenario.client1.tcp.conn-40 cwnd:vector ETV
attr interpolationmode sample-hold
vector 323 scenario.client1.tcp.conn-40 ssthresh:vector ETV
attr interpolationmode sample-hold
vector 324 scenario.client1.tcp.conn-40 dupAcks:vector ETV
attr interpolationmode sample-hold
vector 325 scenario.client3.tcp.conn-39 rtt:vector ETV
attr interpolationmode sample-hold
vector 326 scenario.client3.tcp.conn-39 srtt:vector ETV
attr interpolationmode sample-hold
vector 327 scenario.client3.tcp.conn-39 rttvar:vector ETV
attr interpolationmode sample-hold
vector 328 scenario.client3.tcp.conn-39 rto:vector ETV
attr interpolationmode sample-hold
vector 329 scenario.client3.tcp.conn-39 cwnd:vector ETV
attr interpolationmode sample-hold
vector 330 scenario.client3.tcp.conn-39 ssthresh:vector ETV
attr interpolationmode sample-hold
vector 331 scenario.client3.tcp.conn-39 dupAcks:vector ETV
attr interpolationmode sample-hold
vector 332 scenario.client1.tcp.conn-41 tcpRcvQueueBytes:vector ETV
attr interpolationmode sample-hold
vector 333 scenario.client1.tcp.conn-41 rcvAdv:vector ETV
attr interpolationmode sample-hold
vector 334 scenario.client1.tcp.conn-41 rcvWnd:vector ETV
attr interpolationmode sample-hold
vector 335 scenario.client1.tcp.conn-41 sndAck:vector ETV
attr interpolationmode sample-hold
vector 336 scenario.client3.tcp.conn-3 rcvSeq:vector ETV
attr interpolationmode sample-hold
vector 337 scenario.client3.tcp.conn-3 rcvAck:vector ETV
attr interpolationmode sample-hold
vector 338 scenario.client3.tcp.conn-42 rcvAdv:vector ETV
attr interpolationmode sample-hold
vector 339 scenario.client3.tcp.conn-42 sndWnd:vector ETV
attr interpolationmode sample-hold
vector 340 scenario.client3.tcp.conn-42 tcpRcvQueueBytes:vector ETV
attr interpolationmode sample-hold
vector 341 scenario.client3.tcp.conn-42 rcvWnd:vector ETV
attr interpolationmode sample-hold
vector 342 scenario.client3.tcp.conn-42 sndAck:vector ETV
attr interpolationmode sample-hold
vector 343 scenario.client1.tcp.conn-41 rcvSeq:vector ETV
attr interpolationmode sample-hold
vector 344 scenario.client1.tcp.conn-41 rcvAck:vector ETV
attr interpolationmode sample-hold
vector 345 scenario.client1.tcp.conn-41 sndWnd:vector ETV
attr interpolationmode sample-hold
vector 346 scenario.client1.tcp.conn-41 unacked:vector ETV
attr interpolationmode sample-hold
vector 347 scenario.client3.tcp.conn-42 rcvSeq:vector ETV
attr interpolationmode sample-hold
vector 348 scenario.client3.tcp.conn-42 rcvAck:vector ETV
attr interpolationmode sample-hold
vector 349 scenario.client3.tcp.conn-42 unacked:vector ETV
attr interpolationmode sample-hold
vector 350 scenario.client3.tcp.conn-42 cwnd:vector ETV
attr interpolationmode sample-hold
vector 351 scenario.client3.tcp.conn-42 ssthresh:vector ETV
attr interpolationmode sample-hold
vector 352 scenario.client3.tcp.conn-42 dupAcks:vector ETV
attr interpolationmode sample-hold
vector 353 scenario.client1.tcp.conn-41 rtt:vector ETV
attr interpolationmode sample-hold
vector 354 scenario.client1.tcp.conn-41 srtt:vector ETV
attr interpolationmode sample-hold
vector 355 scenario.client1.tcp.conn-41 rttvar:vector ETV
attr interpolationmode sample-hold
vector 356 scenario.client1.tcp.conn-41 rto:vector ETV
attr interpolationmode sample-hold
vector 357 scenario.client1.tcp.conn-41 cwnd:vector ETV
attr interpolationmode sample-hold
vector 358 scenario.client1.tcp.conn-41 ssthresh:vector ETV
attr interpolationmode sample-hold
vector 359 scenario.client1.tcp.conn-41 dupAcks:vector ETV
attr interpolationmode sample-hold
vector 360 scenario.client2.tcp.conn-43 tcpRcvQueueBytes:vector ETV
attr interpolationmode sample-hold
vector 361 scenario.client2.tcp.conn-43 rcvAdv:vector ETV
attr interpolationmode sample-hold
vector 362 scenario.client2.tcp.conn-43 rcvWnd:vector ETV
attr interpolationmode sample-hold
vector 363 scenario.client2.tcp.conn-43 sndAck:vector ETV
attr interpolationmode sample-hold
vector 364 scenario.client3.tcp.conn-44 rcvAdv:vector ETV
attr interpolationmode sample-hold
vector 365 scenario.client3.tcp.conn-44 sndWnd:vector ETV
attr interpolationmode sample-hold
vector 366 scenario.client3.tcp.conn-44 tcpRcvQueueBytes:vector ETV
attr interpolationmode sample-hold
vector 367 scenario.client3.tcp.conn-44 rcvWnd:vector ETV
attr interpolationmode sample-hold
vector 368 scenario.client3.tcp.conn-44 sndAck:vector ETV
attr interpolationmode sample-hold
vector 369 scenario.client2.tcp.conn-43 rcvSeq:vector ETV
attr interpolationmode sample-hold
vector 370 scenario.client2.tcp.conn-43 rcvAck:vector ETV
attr interpolationmode sample-hold
vector 371 scenario.client2.tcp.conn-43 sndWnd:vector ETV
attr interpolationmode sample-hold
vector 372 scenario.client2.tcp.conn-43 unacked:vector ETV
attr interpolationmode sample-hold
vector 373 scenario.client3.tcp.conn-44 rcvSeq:vector ETV
attr interpolationmode sample-hold
vector 374 scenario.client3.tcp.conn-44 rcvAck:vector ETV
attr interpolationmode sample-hold
vector 375 scenario.client3.tcp.conn-44 unacked:vector ETV
attr interpolationmode sample-hold
vector 376 scenario.client3.tcp.conn-44 cwnd:vector ETV
attr interpolationmode sample-hold
vector 377 scenario.client3.tcp.conn-44 ssthresh:vector ETV
attr interpolationmode sample-hold
vector 378 scenario.client3.tcp.conn-44 dupAcks:vector ETV
attr interpolationmode sample-hold
vector 379 scenario.client2.tcp.conn-43 rtt:vector ETV
attr interpolationmode sample-hold
vector 380 scenario.client2.tcp.conn-43 srtt:vector ETV
attr interpolationmode sample-hold
vector 381 scenario.client2.tcp.conn-43 rttvar:vector ETV
attr interpolationmode sample-hold
vector 382 scenario.client2.tcp.conn-43 rto:vector ETV
attr interpolationmode sample-hold
vector 383 scenario.client2.tcp.conn-43 cwnd:vector ETV
attr interpolationmode sample-hold
vector 384 scenario.client2.tcp.conn-43 ssthresh:vector ETV
attr interpolationmode sample-hold
vector 385 scenario.client2.tcp.conn-43 dupAcks:vector ETV
attr interpolationmode sample-hold
vector 386 scenario.client3.tcp.conn-45 tcpRcvQueueBytes:vector ETV
attr interpolationmode sample-hold
vector 387 scenario.client3.tcp.conn-45 rcvAdv:vector ETV
attr interpolationmode sample-hold
vector 388 scenario.client3.tcp.conn-45 rcvWnd:vector ETV
attr interpolationmode sample-hold
vector 389 scenario.client3.tcp.conn-45 sndAck:vector ETV
attr interpolationmode sample-hold
vector 390 scenario.client3.ppp[0].ppp rcvdPkFromHl:vector(packetBytes) ETV
attr interpolationmode none
attr source packetReceivedFromUpper
attr title "packets received from higher layer, vector(packetBytes)"
vector 391 scenario.client3.ppp[0].ppp.queue packetPushed:vector(packetBytes) ETV
attr interpolationmode none
attr title "packet pushed, vector(packetBytes)"
vector 392 scenario.client3.ppp[0].ppp.queue queueLength:vector ETV
attr interpolationmode sample-hold
attr source "count(packetPushed) - count(packetPopped) - count(packetRemoved) - count(packetDropped)"
attr title "queue length, vector"
vector 393 scenario.client3.ppp[0].ppp.queue packetPopped:vector(packetBytes) ETV
attr interpolationmode none
attr title "packet popped, vector(packetBytes)"
vector 394 scenario.client3.ppp[0].ppp.queue queueingTime:vector ETV
attr interpolationmode none
attr source queueingTime(packetPopped)
attr title "queueing times, vector"
attr unit s
vector 395 scenario.client3.ppp[0].ppp txPk:vector(packetBytes) ETV
attr interpolationmode none
attr source packetSentToLower
attr title "packets transmitted, vector(packetBytes)"
vector 396 scenario.client0.ppp[2].ppp rxPkOk:vector(packetBytes) ETV
attr interpolationmode none
attr source rxPkOk
attr title "packets received OK, vector(packetBytes)"
vector 397 scenario.client0.ppp[2].ppp passedUpPk:vector(packetBytes) ETV
attr interpolationmode none
attr source packetSentToUpper
attr title "packets passed to higher layer, vector(packetBytes)"
vector 398 scenario.client0.tcp.conn-46 rcvAdv:vector ETV
attr interpolationmode sample-hold
vector 399 scenario.client0.tcp.conn-46 sndWnd:vector ETV
attr interpolationmode sample-hold
vector 400 scenario.client0.tcp.conn-46 tcpRcvQueueBytes:vector ETV
attr interpolationmode sample-hold
vector 401 scenario.client0.tcp.conn-46 rcvWnd:vector ETV
attr interpolationmode sample-hold
vector 402 scenario.client0.tcp.conn-46 sndAck:vector ETV
attr interpolationmode sample-hold
vector 403 scenario.client0.ppp[2].ppp rcvdPkFromHl:vector(packetBytes) ETV
attr interpolationmode none
attr source packetReceivedFromUpper
attr title "packets received from higher layer, vector(packetBytes)"
vector 404 scenario.client0.ppp[2].ppp.queue packetPushed:vector(packetBytes) ETV
attr interpolationmode none
attr title "packet pushed, vector(packetBytes)"
vector 405 scenario.client0.ppp[2].ppp.queue queueLength:vector ETV
attr interpolationmode sample-hold
attr source "count(packetPushed) - count(packetPopped) - count(packetRemoved) - count(packetDropped)"
attr title "queue length, vector"
vector 406 scenario.client0.ppp[2].ppp.queue packetPopped:vector(packetBytes) ETV
attr interpolationmode none
attr title "packet popped, vector(packetBytes)"
vector 407 scenario.client0.ppp[2].ppp.queue queueingTime:vector ETV
attr interpolationmode none
attr source queueingTime(packetPopped)
attr title "queueing times, vector"
attr unit s
vector 408 scenario.client0.ppp[2].ppp txPk:vector(packetBytes) ETV
attr interpolationmode none
attr source packetSentToLower
attr title "packets transmitted, vector(packetBytes)"
vector 409 scenario.client3.ppp[0].ppp rxPkOk:vector(packetBytes) ETV
attr interpolationmode none
attr source rxPkOk
attr title "packets received OK, vector(packetBytes)"
vector 410 scenario.client3.ppp[0].ppp passedUpPk:vector(packetBytes) ETV
attr interpolationmode none
attr source packetSentToUpper
attr title "packets passed to higher layer, vector(packetBytes)"
vector 411 scenario.client3.tcp.conn-45 rcvSeq:vector ETV
attr interpolationmode sample-hold
vector 412 scenario.client3.tcp.conn-45 rcvAck:vector ETV
attr interpolationmode sample-hold
vector 413 scenario.client3.tcp.conn-45 sndWnd:vector ETV
attr interpolationmode sample-hold
vector 414 scenario.client3.tcp.conn-45 unacked:vector ETV
attr interpolationmode sample-hold
vector 415 scenario.client0.tcp.conn-46 rcvSeq:vector ETV
attr interpolationmode sample-hold
vector 416 scenario.client0.tcp.conn-46 rcvAck:vector ETV
attr interpolationmode sample-hold
vector 417 scenario.client0.tcp.conn-46 unacked:vector ETV
attr interpolationmode sample-hold
vector 418 scenario.client0.tcp.conn-46 cwnd:vector ETV
attr interpolationmode sample-hold
vector 419 scenario.client0.tcp.conn-46 ssthresh:vector ETV
attr interpolationmode sample-hold
vector 420 scenario.client0.tcp.conn-46 dupAcks:vector ETV
attr interpolationmode sample-hold
vector 421 scenario.client1.tcp.conn-47 tcpRcvQueueBytes:vector ETV
attr interpolationmode sample-hold
vector 422 scenario.client1.tcp.conn-47 rcvAdv:vector ETV
attr interpolationmode sample-hold
vector 423 scenario.client1.tcp.conn-47 rcvWnd:vector ETV
attr interpolationmode sample-hold
vector 424 scenario.client1.tcp.conn-47 sndAck:vector ETV
attr interpolationmode sample-hold
vector 425 scenario.client3.tcp.conn-45 rtt:vector ETV
attr interpolationmode sample-hold
vector 426 scenario.client3.tcp.conn-45 srtt:vector ETV
attr interpolationmode sample-hold
vector 427 scenario.client3.tcp.conn-45 rttvar:vector ETV
attr interpolationmode sample-hold
vector 428 scenario.client3.tcp.conn-45 rto:vector ETV
attr interpolationmode sample-hold
vector 429 scenario.client3.tcp.conn-45 cwnd:vector ETV
attr interpolationmode sample-hold
vector 430 scenario.client3.tcp.conn-45 ssthresh:vector ETV
attr interpolationmode sample-hold
vector 431 scenario.client3.tcp.conn-45 dupAcks:vector ETV
attr interpolationmode sample-hold
vector 432 scenario.client4.tcp.conn-48 rcvAdv:vector ETV
attr interpolationmode sample-hold
vector 433 scenario.client4.tcp.conn-48 sndWnd:vector ETV
attr interpolationmode sample-hold
vector 434 scenario.client4.tcp.conn-48 tcpRcvQueueBytes:vector ETV
attr interpolationmode sample-hold
vector 435 scenario.client4.tcp.conn-48 rcvWnd:vector ETV
attr interpolationmode sample-hold
vector 436 scenario.client4.tcp.conn-48 sndAck:vector ETV
attr interpolationmode sample-hold
vector 437 scenario.client1.tcp.conn-47 rcvSeq:vector ETV
attr interpolationmode sample-hold
vector 438 scenario.client1.tcp.conn-47 rcvAck:vector ETV
attr interpolationmode sample-hold
vector 439 scenario.client1.tcp.conn-47 sndWnd:vector ETV
attr interpolationmode sample-hold
vector 440 scenario.client1.tcp.conn-47 unacked:vector ETV
attr interpolationmode sample-hold
vector 441 scenario.client4.tcp.conn-48 rcvSeq:vector ETV
attr interpolationmode sample-hold
vector 442 scenario.client4.tcp.conn-48 rcvAck:vector ETV
attr interpolationmode sample-hold
vector 443 scenario.client4.tcp.conn-48 unacked:vector ETV
attr interpolationmode sample-hold
vector 444 scenario.client4.tcp.conn-48 cwnd:vector ETV
attr interpolationmode sample-hold
vector 445 scenario.client4.tcp.conn-48 ssthresh:vector ETV
attr interpolationmode sample-hold
vector 446 scenario.client4.tcp.conn-48 dupAcks:vector ETV
attr interpolationmode sample-hold
vector 447 scenario.client1.tcp.conn-47 rtt:vector ETV
attr interpolationmode sample-hold
vector 448 scenario.client1.tcp.conn-47 srtt:vector ETV
attr interpolationmode sample-hold
vector 449 scenario.client1.tcp.conn-47 rttvar:vector ETV
attr interpolationmode sample-hold
vector 450 scenario.client1.tcp.conn-47 rto:vector ETV
attr interpolationmode sample-hold
vector 451 scenario.client1.tcp.conn-47 cwnd:vector ETV
attr interpolationmode sample-hold
vector 452 scenario.client1.tcp.conn-47 ssthresh:vector ETV
attr interpolationmode sample-hold
vector 453 scenario.client1.tcp.conn-47 dupAcks:vector ETV
attr interpolationmode sample-hold
vector 454 scenario.client0.tcp.conn-49 tcpRcvQueueBytes:vector ETV
attr interpolationmode sample-hold
vector 455 scenario.client0.tcp.conn-49 rcvAdv:vector ETV
attr interpolationmode sample-hold
vector 456 scenario.client0.tcp.conn-49 rcvWnd:vector ETV
attr interpolationmode sample-hold
vector 457 scenario.client0.tcp.conn-49 sndAck:vector ETV
attr interpolationmode sample-hold
vector 458 scenario.client0.ppp[1].ppp rcvdPkFromHl:vector(packetBytes) ETV
attr interpolationmode none
attr source packetReceivedFromUpper
attr title "packets received from higher layer, vector(packetBytes)"
vector 459 scenario.client0.ppp[1].ppp.queue packetPushed:vector(packetBytes) ETV
attr interpolationmode none
attr title "packet pushed, vector(packetBytes)"
vector 460 scenario.client0.ppp[1].ppp.queue queueLength:vector ETV
attr interpolationmode sample-hold
attr source "count(packetPushed) - count(packetPopped) - count(packetRemoved) - count(packetDropped)"
attr title "queue length, vector"
vector 461 scenario.client0.ppp[1].ppp.queue packetPopped:vector(packetBytes) ETV
attr interpolationmode none
attr title "packet popped, vector(packetBytes)"
vector 462 scenario.client0.ppp[1].ppp.queue queueingTime:vector ETV
attr interpolationmode none
attr source queueingTime(packetPopped)
attr title "queueing times, vector"
attr unit s
vector 463 scenario.client0.ppp[1].ppp txPk:vector(packetBytes) ETV
attr interpolationmode none
attr source packetSentToLower
attr title "packets transmitted, vector(packetBytes)"
vector 464 scenario.client2.ppp[0].ppp rxPkOk:vector(packetBytes) ETV
attr interpolationmode none
attr source rxPkOk
attr title "packets received OK, vector(packetBytes)"
vector 465 scenario.client2.ppp[0].ppp passedUpPk:vector(packetBytes) ETV
attr interpolationmode none
attr source packetSentToUpper
attr title "packets passed to higher layer, vector(packetBytes)"
vector 466 scenario.client2.tcp.conn-50 rcvAdv:vector ETV
attr interpolationmode sample-hold
vector 467 scenario.client2.tcp.conn-50 sndWnd:vector ETV
attr interpolationmode sample-hold
vector 468 scenario.client2.tcp.conn-50 tcpRcvQueueBytes:vector ETV
attr interpolationmode sample-hold
vector 469 scenario.client2.tcp.conn-50 rcvWnd:vector ETV
attr interpolationmode sample-hold
vector 470 scenario.client2.tcp.conn-50 sndAck:vector ETV
attr interpolationmode sample-hold
vector 471 scenario.client2.ppp[0].ppp rcvdPkFromHl:vector(packetBytes) ETV
attr interpolationmode none
attr source packetReceivedFromUpper
attr title "packets received from higher layer, vector(packetBytes)"
vector 472 scenario.client2.ppp[0].ppp.queue packetPushed:vector(packetBytes) ETV
attr interpolationmode none
attr title "packet pushed, vector(packetBytes)"
vector 473 scenario.client2.ppp[0].ppp.queue queueLength:vector ETV
attr interpolationmode sample-hold
attr source "count(packetPushed) - count(packetPopped) - count(packetRemoved) - count(packetDropped)"
attr title "queue length, vector"
vector 474 scenario.client2.ppp[0].ppp.queue packetPopped:vector(packetBytes) ETV
attr interpolationmode none
attr title "packet popped, vector(packetBytes)"
vector 475 scenario.client2.ppp[0].ppp.queue queueingTime:vector ETV
attr interpolationmode none
attr source queueingTime(packetPopped)
attr title "queueing times, vector"
attr unit s
vector 476 scenario.client2.ppp[0].ppp txPk:vector(packetBytes) ETV
attr interpolationmode none
attr source packetSentToLower
attr title "packets transmitted, vector(packetBytes)"
vector 477 scenario.client0.ppp[1].ppp rxPkOk:vector(packetBytes) ETV
attr interpolationmode none
attr source rxPkOk
attr title "packets received OK, vector(packetBytes)"
vector 478 scenario.client0.ppp[1].ppp passedUpPk:vector(packetBytes) ETV
attr interpolationmode none
attr source packetSentToUpper
attr title "packets passed to higher layer, vector(packetBytes)"
vector 479 scenario.client0.tcp.conn-49 rcvSeq:vector ETV
attr interpolationmode sample-hold
vector 480 scenario.client0.tcp.conn-49 rcvAck:vector ETV
attr interpolationmode sample-hold
vector 481 scenario.client0.tcp.conn-49 sndWnd:vector ETV
attr interpolationmode sample-hold
vector 482 scenario.client0.tcp.conn-49 unacked:vector ETV
attr interpolationmode sample-hold
vector 483 scenario.client2.tcp.conn-50 rcvSeq:vector ETV
attr interpolationmode sample-hold
vector 484 scenario.client2.tcp.conn-50 rcvAck:vector ETV
attr interpolationmode sample-hold
vector 485 scenario.client2.tcp.conn-50 unacked:vector ETV
attr interpolationmode sample-hold
vector 486 scenario.client2.tcp.conn-50 cwnd:vector ETV
attr interpolationmode sample-hold
vector 487 scenario.client2.tcp.conn-50 ssthresh:vector ETV
attr interpolationmode sample-hold
vector 488 scenario.client2.tcp.conn-50 dupAcks:vector ETV
attr interpolationmode sample-hold
vector 489 scenario.client0.tcp.conn-49 rtt:vector ETV
attr interpolationmode sample-hold
vector 490 scenario.client0.tcp.conn-49 srtt:vector ETV
attr interpolationmode sample-hold
vector 491 scenario.client0.tcp.conn-49 rttvar:vector ETV
attr interpolationmode sample-hold
vector 492 scenario.client0.tcp.conn-49 rto:vector ETV
attr interpolationmode sample-hold
vector 493 scenario.client0.tcp.conn-49 cwnd:vector ETV
attr interpolationmode sample-hold
vector 494 scenario.client0.tcp.conn-49 ssthresh:vector ETV
attr interpolationmode sample-hold
vector 495 scenario.client0.tcp.conn-49 dupAcks:vector ETV
attr interpolationmode sample-hold
vector 496 scenario.client2.tcp.conn-51 tcpRcvQueueBytes:vector ETV
attr interpolationmode sample-hold
vector 497 scenario.client2.tcp.conn-51 rcvAdv:vector ETV
attr interpolationmode sample-hold
vector 498 scenario.client2.tcp.conn-51 rcvWnd:vector ETV
attr interpolationmode sample-hold
vector 499 scenario.client2.tcp.conn-51 sndAck:vector ETV
attr interpolationmode sample-hold
vector 500 scenario.client0.tcp.conn-52 rcvAdv:vector ETV
attr interpolationmode sample-hold
vector 501 scenario.client0.tcp.conn-52 sndWnd:vector ETV
attr interpolationmode sample-hold
vector 502 scenario.client0.tcp.conn-52 tcpRcvQueueBytes:vector ETV
attr interpolationmode sample-hold
vector 503 scenario.client0.tcp.conn-52 rcvWnd:vector ETV
attr interpolationmode sample-hold
vector 504 scenario.client0.tcp.conn-52 sndAck:vector ETV
attr interpolationmode sample-hold
vector 505 scenario.client2.tcp.conn-51 rcvSeq:vector ETV
attr interpolationmode sample-hold
vector 506 scenario.client2.tcp.conn-51 rcvAck:vector ETV
attr interpolationmode sample-hold
vector 507 scenario.client2.tcp.conn-51 sndWnd:vector ETV
attr interpolationmode sample-hold
vector 508 scenario.client2.tcp.conn-51 unacked:vector ETV
attr interpolationmode sample-hold
vector 509 scenario.client0.tcp.conn-52 rcvSeq:vector ETV
attr interpolationmode sample-hold
vector 510 scenario.client0.tcp.conn-52 rcvAck:vector ETV
attr interpolationmode sample-hold
vector 511 scenario.client0.tcp.conn-52 unacked:vector ETV
attr interpolationmode sample-hold
vector 512 scenario.client0.tcp.conn-52 cwnd:vector ETV
attr interpolationmode sample-hold
vector 513 scenario.client0.tcp.conn-52 ssthresh:vector ETV
attr interpolationmode sample-hold
vector 514 scenario.client0.tcp.conn-52 dupAcks:vector ETV
attr interpolationmode sample-hold
vector 515 scenario.client2.tcp.conn-51 rtt:vector ETV
attr interpolationmode sample-hold
vector 516 scenario.client2.tcp.conn-51 srtt:vector ETV
attr interpolationmode sample-hold
vector 517 scenario.client2.tcp.conn-51 rttvar:vector ETV
attr interpolationmode sample-hold
vector 518 scenario.client2.tcp.conn-51 rto:vector ETV
attr interpolationmode sample-hold
vector 519 scenario.client2.tcp.conn-51 cwnd:vector ETV
attr interpolationmode sample-hold
vector 520 scenario.client2.tcp.conn-51 ssthresh:vector ETV
attr interpolationmode sample-hold
vector 521 scenario.client2.tcp.conn-51 dupAcks:vector ETV
attr interpolationmode sample-hold
vector 522 scenario.client1.tcp.conn-53 tcpRcvQueueBytes:vector ETV
attr interpolationmode sample-hold
vector 523 scenario.client1.tcp.conn-53 rcvAdv:vector ETV
attr interpolationmode sample-hold
vector 524 scenario.client1.tcp.conn-53 rcvWnd:vector ETV
attr interpolationmode sample-hold
vector 525 scenario.client1.tcp.conn-53 sndAck:vector ETV
attr interpolationmode sample-hold
vector 526 scenario.client0.tcp.conn-54 rcvAdv:vector ETV
attr interpolationmode sample-hold
vector 527 scenario.client0.tcp.conn-54 sndWnd:vector ETV
attr interpolationmode sample-hold
vector 528 scenario.client0.tcp.conn-54 tcpRcvQueueBytes:vector ETV
attr interpolationmode sample-hold
vector 529 scenario.client0.tcp.conn-54 rcvWnd:vector ETV
attr interpolationmode sample-hold
vector 530 scenario.client0.tcp.conn-54 sndAck:vector ETV
attr interpolationmode sample-hold
vector 531 scenario.client1.tcp.conn-53 rcvSeq:vector ETV
attr interpolationmode sample-hold
vector 532 scenario.client1.tcp.conn-53 rcvAck:vector ETV
attr interpolationmode sample-hold
vector 533 scenario.client1.tcp.conn-53 sndWnd:vector ETV
attr interpolationmode sample-hold
vector 534 scenario.client1.tcp.conn-53 unacked:vector ETV
attr interpolationmode sample-hold
vector 535 scenario.client0.tcp.conn-54 rcvSeq:vector ETV
attr interpolationmode sample-hold
vector 536 scenario.client0.tcp.conn-54 rcvAck:vector ETV
attr interpolationmode sample-hold
vector 537 scenario.client0.tcp.conn-54 unacked:vector ETV
attr interpolationmode sample-hold
vector 538 scenario.client0.tcp.conn-54 cwnd:vector ETV
attr interpolationmode sample-hold
vector 539 scenario.client0.tcp.conn-54 ssthresh:vector ETV
attr interpolationmode sample-hold
vector 540 scenario.client0.tcp.conn-54 dupAcks:vector ETV
attr interpolationmode sample-hold
vector 541 scenario.client1.tcp.conn-53 rtt:vector ETV
attr interpolationmode sample-hold
vector 542 scenario.client1.tcp.conn-53 srtt:vector ETV
attr interpolationmode sample-hold
vector 543 scenario.client1.tcp.conn-53 rttvar:vector ETV
attr interpolationmode sample-hold
vector 544 scenario.client1.tcp.conn-53 rto:vector ETV
attr interpolationmode sample-hold
vector 545 scenario.client1.tcp.conn-53 cwnd:vector ETV
attr interpolationmode sample-hold
vector 546 scenario.client1.tcp.conn-53 ssthresh:vector ETV
attr interpolationmode sample-hold
vector 547 scenario.client1.tcp.conn-53 dupAcks:vector ETV
attr interpolationmode sample-hold
vector 548 scenario.client2.tcp.conn-55 tcpRcvQueueBytes:vector ETV
attr interpolationmode sample-hold
vector 549 scenario.client2.tcp.conn-55 rcvAdv:vector ETV
attr interpolationmode sample-hold
vector 550 scenario.client2.tcp.conn-55 rcvWnd:vector ETV
attr interpolationmode sample-hold
vector 551 scenario.client2.tcp.conn-55 sndAck:vector ETV
attr interpolationmode sample-hold
vector 552 scenario.client2.ppp[1].ppp rcvdPkFromHl:vector(packetBytes) ETV
attr interpolationmode none
attr source packetReceivedFromUpper
attr title "packets received from higher layer, vector(packetBytes)"
vector 553 scenario.client2.ppp[1].ppp.queue packetPushed:vector(packetBytes) ETV
attr interpolationmode none
attr title "packet pushed, vector(packetBytes)"
vector 554 scenario.client2.ppp[1].ppp.queue queueLength:vector ETV
attr interpolationmode sample-hold
attr source "count(packetPushed) - count(packetPopped) - count(packetRemoved) - count(packetDropped)"
attr title "queue length, vector"
vector 555 scenario.client2.ppp[1].ppp.queue packetPopped:vector(packetBytes) ETV
attr interpolationmode none
attr title "packet popped, vector(packetBytes)"
vector 556 scenario.client2.ppp[1].ppp.queue queueingTime:vector ETV
attr interpolationmode none
attr source queueingTime(packetPopped)
attr title "queueing times, vector"
attr unit s
vector 557 scenario.client2.ppp[1].ppp txPk:vector(packetBytes) ETV
attr interpolationmode none
attr source packetSentToLower
attr title "packets transmitted, vector(packetBytes)"
vector 558 scenario.client1.ppp[1].ppp rxPkOk:vector(packetBytes) ETV
attr interpolationmode none
attr source rxPkOk
attr title "packets received OK, vector(packetBytes)"
vector 559 scenario.client1.ppp[1].ppp passedUpPk:vector(packetBytes) ETV
attr interpolationmode none
attr source packetSentToUpper
attr title "packets passed to higher layer, vector(packetBytes)"
vector 560 scenario.client1.tcp.conn-56 rcvAdv:vector ETV
attr interpolationmode sample-hold
vector 561 scenario.client1.tcp.conn-56 sndWnd:vector ETV
attr interpolationmode sample-hold
vector 562 scenario.client1.tcp.conn-56 tcpRcvQueueBytes:vector ETV
attr interpolationmode sample-hold
vector 563 scenario.client1.tcp.conn-56 rcvWnd:vector ETV
attr interpolationmode sample-hold
vector 564 scenario.client1.tcp.conn-56 sndAck:vector ETV
attr interpolationmode sample-hold
vector 565 scenario.client1.ppp[1].ppp rcvdPkFromHl:vector(packetBytes) ETV
attr interpolationmode none
attr source packetReceivedFromUpper
attr title "packets received from higher layer, vector(packetBytes)"
vector 566 scenario.client1.ppp[1].ppp.queue packetPushed:vector(packetBytes) ETV
attr interpolationmode none
attr title "packet pushed, vector(packetBytes)"
vector 567 scenario.client1.ppp[1].ppp.queue queueLength:vector ETV
attr interpolationmode sample-hold
attr source "count(packetPushed) - count(packetPopped) - count(packetRemoved) - count(packetDropped)"
attr title "queue length, vector"
vector 568 scenario.client1.ppp[1].ppp.queue packetPopped:vector(packetBytes) ETV
attr interpolationmode none
attr title "packet popped, vector(packetBytes)"
vector 569 scenario.client1.ppp[1].ppp.queue queueingTime:vector ETV
attr interpolationmode none
attr source queueingTime(packetPopped)
attr title "queueing times, vector"
attr unit s
vector 570 scenario.client1.ppp[1].ppp txPk:vector(packetBytes) ETV
attr interpolationmode none
attr source packetSentToLower
attr title "packets transmitted, vector(packetBytes)"
vector 571 scenario.client2.ppp[1].ppp rxPkOk:vector(packetBytes) ETV
attr interpolationmode none
attr source rxPkOk
attr title "packets received OK, vector(packetBytes)"
vector 572 scenario.client2.ppp[1].ppp passedUpPk:vector(packetBytes) ETV
attr interpolationmode none
attr source packetSentToUpper
attr title "packets passed to higher layer, vector(packetBytes)"
vector 573 scenario.client2.tcp.conn-55 rcvSeq:vector ETV
attr interpolationmode sample-hold
vector 574 scenario.client2.tcp.conn-55 rcvAck:vector ETV
attr interpolationmode sample-hold
vector 575 scenario.client2.tcp.conn-55 sndWnd:vector ETV
attr interpolationmode sample-hold
vector 576 scenario.client2.tcp.conn-55 unacked:vector ETV
attr interpolationmode sample-hold
vector 577 scenario.client1.tcp.conn-56 rcvSeq:vector ETV
attr interpolationmode sample-hold
vector 578 scenario.client1.tcp.conn-56 rcvAck:vector ETV
attr interpolationmode sample-hold
vector 579 scenario.client1.tcp.conn-56 unacked:vector ETV
attr interpolationmode sample-hold
vector 580 scenario.client1.tcp.conn-56 cwnd:vector ETV
attr interpolationmode sample-hold
vector 581 scenario.client1.tcp.conn-56 ssthresh:vector ETV
attr interpolationmode sample-hold
vector 582 scenario.client1.tcp.conn-56 dupAcks:vector ETV
attr interpolationmode sample-hold
vector 583 scenario.client2.tcp.conn-55 rtt:vector ETV
attr interpolationmode sample-hold
vector 584 scenario.client2.tcp.conn-55 srtt:vector ETV
attr interpolationmode sample-hold
vector 585 scenario.client2.tcp.conn-55 rttvar:vector ETV
attr interpolationmode sample-hold
vector 586 scenario.client2.tcp.conn-55 rto:vector ETV
attr interpolationmode sample-hold
vector 587 scenario.client2.tcp.conn-55 cwnd:vector ETV
attr interpolationmode sample-hold
vector 588 scenario.client2.tcp.conn-55 ssthresh:vector ETV
attr interpolationmode sample-hold
vector 589 scenario.client2.tcp.conn-55 dupAcks:vector ETV
attr interpolationmode sample-hold
vector 590 scenario.client1.tcp.conn-57 tcpRcvQueueBytes:vector ETV
attr interpolationmode sample-hold
vector 591 scenario.client1.tcp.conn-57 rcvAdv:vector ETV
attr interpolationmode sample-hold
vector 592 scenario.client1.tcp.conn-57 rcvWnd:vector ETV
attr interpolationmode sample-hold
vector 593 scenario.client1.tcp.conn-57 sndAck:vector ETV
attr interpolationmode sample-hold
vector 594 scenario.client2.tcp.conn-58 rcvAdv:vector ETV
attr interpolationmode sample-hold
vector 595 scenario.client2.tcp.conn-58 sndWnd:vector ETV
attr interpolationmode sample-hold
vector 596 scenario.client2.tcp.conn-58 tcpRcvQueueBytes:vector ETV
attr interpolationmode sample-hold
vector 597 scenario.client2.tcp.conn-58 rcvWnd:vector ETV
attr interpolationmode sample-hold
vector 598 scenario.client2.tcp.conn-58 sndAck:vector ETV
attr interpolationmode sample-hold
vector 599 scenario.client1.tcp.conn-57 rcvSeq:vector ETV
attr interpolationmode sample-hold
vector 600 scenario.client1.tcp.conn-57 rcvAck:vector ETV
attr interpolationmode sample-hold
vector 601 scenario.client1.tcp.conn-57 sndWnd:vector ETV
attr interpolationmode sample-hold
vector 602 scenario.client1.tcp.conn-57 unacked:vector ETV
attr interpolationmode sample-hold
vector 603 scenario.client2.tcp.conn-58 rcvSeq:vector ETV
attr interpolationmode sample-hold
vector 604 scenario.client2.tcp.conn-58 rcvAck:vector ETV
attr interpolationmode sample-hold
vector 605 scenario.client2.tcp.conn-58 unacked:vector ETV
attr interpolationmode sample-hold
vector 606 scenario.client2.tcp.conn-58 cwnd:vector ETV
attr interpolationmode sample-hold
vector 607 scenario.client2.tcp.conn-58 ssthresh:vector ETV
attr interpolationmode sample-hold
vector 608 scenario.client2.tcp.conn-58 dupAcks:vector ETV
attr interpolationmode sample-hold
vector 609 scenario.client1.tcp.conn-57 rtt:vector ETV
attr interpolationmode sample-hold
vector 610 scenario.client1.tcp.conn-57 srtt:vector ETV
attr interpolationmode sample-hold
vector 611 scenario.client1.tcp.conn-57 rttvar:vector ETV
attr interpolationmode sample-hold
vector 612 scenario.client1.tcp.conn-57 rto:vector ETV
attr interpolationmode sample-hold
vector 613 scenario.client1.tcp.conn-57 cwnd:vector ETV
attr interpolationmode sample-hold
vector 614 scenario.client1.tcp.conn-57 ssthresh:vector ETV
attr interpolationmode sample-hold
vector 615 scenario.client1.tcp.conn-57 dupAcks:vector ETV
attr interpolationmode sample-hold
vector 616 scenario.client0.tcp.conn-59 tcpRcvQueueBytes:vector ETV
attr interpolationmode sample-hold
vector 617 scenario.client0.tcp.conn-59 rcvAdv:vector ETV
attr interpolationmode sample-hold
vector 618 scenario.client0.tcp.conn-59 rcvWnd:vector ETV
attr interpolationmode sample-hold
vector 619 scenario.client0.tcp.conn-59 sndAck:vector ETV
attr interpolationmode sample-hold
vector 620 scenario.client3.tcp.conn-60 rcvAdv:vector ETV
attr interpolationmode sample-hold
vector 621 scenario.client3.tcp.conn-60 sndWnd:vector ETV
attr interpolationmode sample-hold
vector 622 scenario.client3.tcp.conn-60 tcpRcvQueueBytes:vector ETV
attr interpolationmode sample-hold
vector 623 scenario.client3.tcp.conn-60 rcvWnd:vector ETV
attr interpolationmode sample-hold
vector 624 scenario.client3.tcp.conn-60 sndAck:vector ETV
attr interpolationmode sample-hold
vector 625 scenario.client0.tcp.conn-59 rcvSeq:vector ETV
attr interpolationmode sample-hold
vector 626 scenario.client0.tcp.conn-59 rcvAck:vector ETV
attr interpolationmode sample-hold
vector 627 scenario.client0.tcp.conn-59 sndWnd:vector ETV
attr interpolationmode sample-hold
vector 628 scenario.client0.tcp.conn-59 unacked:vector ETV
attr interpolationmode sample-hold
vector 629 scenario.client3.tcp.conn-60 rcvSeq:vector ETV
attr interpolationmode sample-hold
vector 630 scenario.client3.tcp.conn-60 rcvAck:vector ETV
attr interpolationmode sample-hold
vector 631 scenario.client3.tcp.conn-60 unacked:vector ETV
attr interpolationmode sample-hold
vector 632 scenario.client3.tcp.conn-60 cwnd:vector ETV
attr interpolationmode sample-hold
vector 633 scenario.client3.tcp.conn-60 ssthresh:vector ETV
attr interpolationmode sample-hold
vector 634 scenario.client3.tcp.conn-60 dupAcks:vector ETV
attr interpolationmode sample-hold
vector 635 scenario.client0.tcp.conn-59 rtt:vector ETV
attr interpolationmode sample-hold
vector 636 scenario.client0.tcp.conn-59 srtt:vector ETV
attr interpolationmode sample-hold
vector 637 scenario.client0.tcp.conn-59 rttvar:vector ETV
attr interpolationmode sample-hold
vector 638 scenario.client0.tcp.conn-59 rto:vector ETV
attr interpolationmode sample-hold
vector 639 scenario.client0.tcp.conn-59 cwnd:vector ETV
attr interpolationmode sample-hold
vector 640 scenario.client0.tcp.conn-59 ssthresh:vector ETV
attr interpolationmode sample-hold
vector 641 scenario.client0.tcp.conn-59 dupAcks:vector ETV
attr interpolationmode sample-hold
vector 642 scenario.client4.tcp.conn-61 tcpRcvQueueBytes:vector ETV
attr interpolationmode sample-hold
vector 643 scenario.client4.tcp.conn-61 rcvAdv:vector ETV
attr interpolationmode sample-hold
vector 644 scenario.client4.tcp.conn-61 rcvWnd:vector ETV
attr interpolationmode sample-hold
vector 645 scenario.client4.tcp.conn-61 sndAck:vector ETV
attr interpolationmode sample-hold
vector 646 scenario.client4.ppp[3].ppp rcvdPkFromHl:vector(packetBytes) ETV
attr interpolationmode none
attr source packetReceivedFromUpper
attr title "packets received from higher layer, vector(packetBytes)"
vector 647 scenario.client4.ppp[3].ppp.queue packetPushed:vector(packetBytes) ETV
attr interpolationmode none
attr title "packet pushed, vector(packetBytes)"
vector 648 scenario.client4.ppp[3].ppp.queue queueLength:vector ETV
attr interpolationmode sample-hold
attr source "count(packetPushed) - count(packetPopped) - count(packetRemoved) - count(packetDropped)"
attr title "queue length, vector"
vector 649 scenario.client4.ppp[3].ppp.queue packetPopped:vector(packetBytes) ETV
attr interpolationmode none
attr title "packet popped, vector(packetBytes)"
vector 650 scenario.client4.ppp[3].ppp.queue queueingTime:vector ETV
attr interpolationmode none
attr source queueingTime(packetPopped)
attr title "queueing times, vector"
attr unit s
vector 651 scenario.client4.ppp[3].ppp txPk:vector(packetBytes) ETV
attr interpolationmode none
attr source packetSentToLower
attr title "packets transmitted, vector(packetBytes)"
vector 652 scenario.client3.ppp[3].ppp rxPkOk:vector(packetBytes) ETV
attr interpolationmode none
attr source rxPkOk
attr title "packets received OK, vector(packetBytes)"
vector 653 scenario.client3.ppp[3].ppp passedUpPk:vector(packetBytes) ETV
attr interpolationmode none
attr source packetSentToUpper
attr title "packets passed to higher layer, vector(packetBytes)"
vector 654 scenario.client3.tcp.conn-62 rcvAdv:vector ETV
attr interpolationmode sample-hold
vector 655 scenario.client3.tcp.conn-62 sndWnd:vector ETV
attr interpolationmode sample-hold
vector 656 scenario.client3.tcp.conn-62 tcpRcvQueueBytes:vector ETV
attr interpolationmode sample-hold
vector 657 scenario.client3.tcp.conn-62 rcvWnd:vector ETV
attr interpolationmode sample-hold
vector 658 scenario.client3.tcp.conn-62 sndAck:vector ETV
attr interpolationmode sample-hold
vector 659 scenario.client3.ppp[3].ppp rcvdPkFromHl:vector(packetBytes) ETV
attr interpolationmode none
attr source packetReceivedFromUpper
attr title "packets received from higher layer, vector(packetBytes)"
vector 660 scenario.client3.ppp[3].ppp.queue packetPushed:vector(packetBytes) ETV
attr interpolationmode none
attr title "packet pushed, vector(packetBytes)"
vector 661 scenario.client3.ppp[3].ppp.queue queueLength:vector ETV
attr interpolationmode sample-hold
attr source "count(packetPushed) - count(packetPopped) - count(packetRemoved) - count(packetDropped)"
attr title "queue length, vector"
vector 662 scenario.client3.ppp[3].ppp.queue packetPopped:vector(packetBytes) ETV
attr interpolationmode none
attr title "packet popped, vector(packetBytes)"
vector 663 scenario.client3.ppp[3].ppp.queue queueingTime:vector ETV
[...]
596	2447	5.431666925261	0
596	2447	5.431666925261	0
596	2462	5.463193582325	0
596	2462	5.463193582325	0
597	588	1.865182144718	7504
597	601	1.866974144718	7503
597	691	2.316496381359	7504
597	823	2.887785694631	7504
597	987	3.034276910062	7504
597	1453	4.630100347423	7504
597	1683	4.886730493607	7504
597	2029	5.078910437453	7504
597	2141	5.089191322245	7504
597	2367	5.216544025514	7504
597	2447	5.431666925261	7504
597	2462	5.463193582325	7504
598	588	1.865182144718	466069
598	601	1.866974144718	466070
598	691	2.316496381359	466071
598	823	2.887785694631	466072
598	987	3.034276910062	466074
598	1453	4.630100347423	466075
598	1683	4.886730493607	466076
598	2029	5.078910437453	466078
598	2141	5.089191322245	466079
598	2367	5.216544025514	466080
598	2447	5.431666925261	466081
598	2462	5.463193582325	466082
599	594	1.866090144718	466295
599	611	1.867850144718	466296
599	698	2.317372381359	466296
599	842	2.888661694631	466296
599	1012	3.035152910062	466296
599	1460	4.630976347423	466296
599	1690	4.887606493607	466296
599	2057	5.079786437453	466296
599	2148	5.090067322245	466296
599	2374	5.217420025514	466296
599	2454	5.432542925261	466296
599	2469	5.464069582325	466296
600	594	1.866090144718	466069
600	611	1.867850144718	466070
600	698	2.317372381359	466071
600	842	2.888661694631	466072
600	1012	3.035152910062	466074
600	1460	4.630976347423	466075
600	1690	4.887606493607	466076
600	2057	5.079786437453	466078
600	2148	5.090067322245	466079
600	2374	5.217420025514	466080
600	2454	5.432542925261	466081
600	2469	5.464069582325	466082
601	594	1.866090144718	7504
601	611	1.867850144718	7503
601	698	2.317372381359	7504
601	842	2.888661694631	7504
601	1012	3.035152910062	7504
601	1460	4.630976347423	7504
601	1690	4.887606493607	7504
601	2057	5.079786437453	7504
601	2148	5.090067322245	7504
601	2374	5.217420025514	7504
601	2454	5.432542925261	7504
601	2469	5.464069582325	7504
602	594	1.866090144718	1
602	611	1.867850144718	0
602	685	2.315612381359	1
602	698	2.317372381359	0
602	817	2.886901694631	1
602	842	2.888661694631	0
602	951	3.033008910062	2
602	1012	3.035152910062	0
602	1447	4.629216347423	1
602	1460	4.630976347423	0
602	1677	4.885846493607	1
602	1690	4.887606493607	0
602	2003	5.078018437453	2
602	2057	5.079786437453	0
602	2135	5.088307322245	1
602	2148	5.090067322245	0
602	2361	5.215660025514	1
602	2374	5.217420025514	0
602	2441	5.430782925261	1
602	2454	5.432542925261	0
602	2456	5.462309582325	1
602	2469	5.464069582325	0
603	601	1.866974144718	466069
603	691	2.316496381359	466070
603	823	2.887785694631	466071
603	987	3.034276910062	466072
603	1453	4.630100347423	466074
603	1683	4.886730493607	466075
603	2029	5.078910437453	466076
603	2141	5.089191322245	466078
603	2367	5.216544025514	466079
603	2447	5.431666925261	466080
603	2462	5.463193582325	466081
604	601	1.866974144718	466296
604	691	2.316496381359	466296
604	823	2.887785694631	466296
604	987	3.034276910062	466296
604	1453	4.630100347423	466296
604	1683	4.886730493607	466296
604	2029	5.078910437453	466296
604	2141	5.089191322245	466296
604	2367	5.216544025514	466296
604	2447	5.431666925261	466296
604	2462	5.463193582325	466296
605	601	1.866974144718	0
606	601	1.866974144718	1072
607	601	1.866974144718	4294967295
608	601	1.866974144718	0
608	691	2.316496381359	0
608	823	2.887785694631	0
608	987	3.034276910062	0
608	1453	4.630100347423	0
608	1683	4.886730493607	0
608	2029	5.078910437453	0
608	2141	5.089191322245	0
608	2367	5.216544025514	0
608	2447	5.431666925261	0
608	2462	5.463193582325	0
609	611	1.867850144718	0.00176
609	698	2.317372381359	0.00176
609	842	2.888661694631	0.00176
609	1012	3.035152910062	0.002144
609	1460	4.630976347423	0.00176
609	1690	4.887606493607	0.00176
609	2057	5.079786437453	0.001768
609	2148	5.090067322245	0.00176
609	2374	5.217420025514	0.00176
609	2454	5.432542925261	0.00176
609	2469	5.464069582325	0.00176
610	611	1.867850144718	0.00022
610	698	2.317372381359	0.0004125
610	842	2.888661694631	0.0005809375
610	1012	3.035152910062	0.000776320313
610	1460	4.630976347423	0.000899280274
610	1690	4.887606493607	0.00100687024
610	2057	5.079786437453	0.00110201146
610	2148	5.090067322245	0.001184260028
610	2374	5.217420025514	0.001256227525
610	2454	5.432542925261	0.001319199084
610	2469	5.464069582325	0.001374299199
611	611	1.867850144718	0.65647
611	698	2.317372381359	0.57460375
611	842	2.888661694631	0.50294671875
611	1012	3.035152910062	0.440273761719
611	1460	4.630976347423	0.385362501465
611	1690	4.887606493607	0.337299778748
611	2057	5.079786437453	0.295232447625
611	2148	5.090067322245	0.258410640239
611	2374	5.217420025514	0.226181277706
611	2454	5.432542925261	0.197971589552
611	2469	5.464069582325	0.173280240973
612	611	1.867850144718	2.6261
612	698	2.317372381359	2.2988275
612	842	2.888661694631	2.0123678125
612	1012	3.035152910062	1.761871367189
612	1460	4.630976347423	1.542349286134
612	1690	4.887606493607	1.350205985232
612	2057	5.079786437453	1.18203180196
612	2148	5.090067322245	1.034826820984
612	2374	5.217420025514	1
612	2454	5.432542925261	1
612	2469	5.464069582325	1
613	611	1.867850144718	1072
613	698	2.317372381359	1608
613	842	2.888661694631	2144
613	1012	3.035152910062	2680
613	1460	4.630976347423	3216
613	1690	4.887606493607	3752
613	2057	5.079786437453	4288
613	2148	5.090067322245	4824
613	2374	5.217420025514	5360
613	2454	5.432542925261	5896
613	2469	5.464069582325	6432
614	611	1.867850144718	4294967295
614	698	2.317372381359	4294967295
614	842	2.888661694631	4294967295
614	1012	3.035152910062	4294967295
614	1460	4.630976347423	4294967295
614	1690	4.887606493607	4294967295
614	2057	5.079786437453	4294967295
614	2148	5.090067322245	4294967295
614	2374	5.217420025514	4294967295
614	2454	5.432542925261	4294967295
614	2469	5.464069582325	4294967295
615	611	1.867850144718	0
615	698	2.317372381359	0
615	842	2.888661694631	0
615	1012	3.035152910062	0
615	1460	4.630976347423	0
615	1690	4.887606493607	0
615	2057	5.079786437453	0
615	2148	5.090067322245	0
615	2374	5.217420025514	0
615	2454	5.432542925261	0
615	2469	5.464069582325	0
616	613	1.919855980102	0
616	626	1.921671980102	0
616	980	3.033900910062	0
616	1337	4.410578204535	0
616	1868	4.999068090214	0
616	2251	5.172811001434	0
616	2501	5.573184364025	0
617	613	1.919855980102	7504
617	626	1.921671980102	487695
617	626	1.921671980102	487695
617	980	3.033900910062	487695
617	1337	4.410578204535	487695
617	1868	4.999068090214	487695
617	2251	5.172811001434	487695
617	2501	5.573184364025	487695
618	613	1.919855980102	7504
618	626	1.921671980102	7504
618	980	3.033900910062	7504
618	1337	4.410578204535	7504
618	1868	4.999068090214	7504
618	2251	5.172811001434	7504
618	2501	5.573184364025	7504
619	613	1.919855980102	0
619	626	1.921671980102	480191
619	980	3.033900910062	480191
619	1337	4.410578204535	480191
619	1868	4.999068090214	480191
619	2251	5.172811001434	480191
619	2501	5.573184364025	480191
620	620	1.920763980102	487468
620	620	1.920763980102	487468
620	633	1.922555980102	487468
620	1006	3.034784910062	487470
620	1343	4.411462204535	487471
620	1874	4.999952090214	487472
620	2278	5.173703001434	487474
620	2507	5.574068364025	487475
621	620	1.920763980102	7504
621	633	1.922555980102	7504
622	620	1.920763980102	0
622	633	1.922555980102	0
622	633	1.922555980102	1
622	1006	3.034784910062	0
622	1006	3.034784910062	0
622	1343	4.411462204535	0
622	1343	4.411462204535	0
622	1874	4.999952090214	0
622	1874	4.999952090214	0
622	2278	5.173703001434	0
622	2278	5.173703001434	0
622	2507	5.574068364025	0
622	2507	5.574068364025	0
623	620	1.920763980102	7504
623	633	1.922555980102	7503
623	1006	3.034784910062	7504
623	1343	4.411462204535	7504
623	1874	4.999952090214	7504
623	2278	5.173703001434	7504
623	2507	5.574068364025	7504
624	620	1.920763980102	479964
624	633	1.922555980102	479965
624	1006	3.034784910062	479966
624	1343	4.411462204535	479967
624	1874	4.999952090214	479968
624	2278	5.173703001434	479970
624	2507	5.574068364025	479971
625	626	1.921671980102	480190
625	643	1.923431980102	480191
625	1023	3.035660910062	480191
625	1350	4.412338204535	480191
625	1886	5.000828090214	480191
625	2310	5.174579001434	480191
625	2514	5.574944364025	480191
626	626	1.921671980102	479964
626	643	1.923431980102	479965
626	1023	3.035660910062	479966
626	1350	4.412338204535	479967
626	1886	5.000828090214	479968
626	2310	5.174579001434	479970
626	2514	5.574944364025	479971
627	626	1.921671980102	7504
627	643	1.923431980102	7503
627	1023	3.035660910062	7504
627	1350	4.412338204535	7504
627	1886	5.000828090214	7504
627	2310	5.174579001434	7504
627	2514	5.574944364025	7504
628	626	1.921671980102	1
628	643	1.923431980102	0
628	980	3.033900910062	1
628	1023	3.035660910062	0
628	1337	4.410578204535	1
628	1350	4.412338204535	0
628	1868	4.999068090214	1
628	1886	5.000828090214	0
628	2251	5.172811001434	2
628	2310	5.174579001434	0
628	2501	5.573184364025	1
628	2514	5.574944364025	0
629	633	1.922555980102	479964
629	1006	3.034784910062	479965
629	1343	4.411462204535	479966
629	1874	4.999952090214	479967
629	2278	5.173703001434	479968
629	2507	5.574068364025	479970
630	633	1.922555980102	480191
630	1006	3.034784910062	480191
630	1343	4.411462204535	480191
630	1874	4.999952090214	480191
630	2278	5.173703001434	480191
630	2507	5.574068364025	480191
631	633	1.922555980102	0
632	633	1.922555980102	1072
633	633	1.922555980102	4294967295
634	633	1.922555980102	0
634	1006	3.034784910062	0
634	1343	4.411462204535	0
634	1874	4.999952090214	0
634	2278	5.173703001434	0
634	2507	5.574068364025	0
635	643	1.923431980102	0.00176
635	1023	3.035660910062	0.00176
635	1350	4.412338204535	0.00176
635	1886	5.000828090214	0.00176
635	2310	5.174579001434	0.001768
635	2514	5.574944364025	0.00176
636	643	1.923431980102	0.00022
636	1023	3.035660910062	0.0004125
636	1350	4.412338204535	0.0005809375
636	1886	5.000828090214	0.000728320313
636	2310	5.174579001434	0.000858280274
636	2514	5.574944364025	0.00097099524
637	643	1.923431980102	0.65647
637	1023	3.035660910062	0.57460375
637	1350	4.412338204535	0.50294671875
637	1886	5.000828090214	0.440225761719
637	2310	5.174579001434	0.385327501465
637	2514	5.574944364025	0.337274278748
638	643	1.923431980102	2.6261
638	1023	3.035660910062	2.2988275
638	1350	4.412338204535	2.0123678125
638	1886	5.000828090214	1.761631367189
638	2310	5.174579001434	1.542168286134
638	2514	5.574944364025	1.350068110232
639	643	1.923431980102	1072
639	1023	3.035660910062	1608
639	1350	4.412338204535	2144
639	1886	5.000828090214	2680
639	2310	5.174579001434	3216
639	2514	5.574944364025	3752
640	643	1.923431980102	4294967295
640	1023	3.035660910062	4294967295
640	1350	4.412338204535	4294967295
640	1886	5.000828090214	4294967295
640	2310	5.174579001434	4294967295
640	2514	5.574944364025	4294967295
641	643	1.923431980102	0
641	1023	3.035660910062	0
641	1350	4.412338204535	0
641	1886	5.000828090214	0
641	2310	5.174579001434	0
641	2514	5.574944364025	0
642	856	2.888677694631	0
642	899	2.890493694631	0
642	1157	3.855614517655	0
642	1835	4.959121434858	0
642	2076	5.085558582843	0
642	2313	5.174854704796	0
643	856	2.888677694631	7504
643	899	2.890493694631	729901
643	899	2.890493694631	729901
643	1157	3.855614517655	729901
643	1835	4.959121434858	729901
643	2076	5.085558582843	729901
643	2313	5.174854704796	729901
644	856	2.888677694631	7504
644	899	2.890493694631	7504
644	1157	3.855614517655	7504
644	1835	4.959121434858	7504
644	2076	5.085558582843	7504
644	2313	5.174854704796	7504
645	856	2.888677694631	0
645	899	2.890493694631	722397
645	1157	3.855614517655	722397
645	1835	4.959121434858	722397
645	2076	5.085558582843	722397
645	2313	5.174854704796	722397
646	859	2.888677694631	44
646	902	2.890493694631	41
646	1114	3.669307609363	44
646	1129	3.671099609363	40
646	1159	3.855614517655	41
646	1837	4.959121434858	41
646	2085	5.085558582843	42
646	2315	5.174854704796	41
647	859	2.888677694631	44
647	902	2.890493694631	41
647	1114	3.669307609363	44
647	1129	3.671099609363	40
647	1159	3.855614517655	41
647	1837	4.959121434858	41
647	2085	5.085558582843	42
647	2315	5.174854704796	41
648	859	2.888677694631	1
648	859	2.888677694631	0
648	902	2.890493694631	1
648	902	2.890493694631	0
648	1114	3.669307609363	1
648	1114	3.669307609363	0
648	1129	3.671099609363	1
648	1129	3.671099609363	0
648	1159	3.855614517655	1
648	1159	3.855614517655	0
648	1837	4.959121434858	1
648	1837	4.959121434858	0
648	2085	5.085558582843	1
648	2085	5.085558582843	0
648	2315	5.174854704796	1
648	2315	5.174854704796	0
649	859	2.888677694631	44
649	902	2.890493694631	41
649	1114	3.669307609363	44
649	1129	3.671099609363	40
649	1159	3.855614517655	41
649	1837	4.959121434858	41
649	2085	5.085558582843	42
649	2315	5.174854704796	41
650	859	2.888677694631	0
650	902	2.890493694631	0
650	1114	3.669307609363	0
650	1129	3.671099609363	0
650	1159	3.855614517655	0
650	1837	4.959121434858	0
650	2085	5.085558582843	0
650	2315	5.174854704796	0
651	859	2.888677694631	51
651	902	2.890493694631	48
651	1114	3.669307609363	51
651	1129	3.671099609363	47
651	1159	3.855614517655	48
651	1837	4.959121434858	48
651	2085	5.085558582843	49
651	2315	5.174854704796	48
652	881	2.889585694631	51
652	907	2.891377694631	48
652	1116	3.670215609363	51
652	1133	3.671975609363	47
652	1161	3.856498517655	48
652	1842	4.960005434858	48
652	2096	5.086450582843	49
652	2327	5.175738704796	48
653	881	2.889585694631	44
653	907	2.891377694631	41
653	1116	3.670215609363	44
653	1133	3.671975609363	40
653	1161	3.856498517655	41
653	1842	4.960005434858	41
653	2096	5.086450582843	42
653	2327	5.175738704796	41
654	883	2.889585694631	729674
654	883	2.889585694631	729674
654	909	2.891377694631	729674
654	1163	3.856498517655	729676
654	1844	4.960005434858	729677
654	2102	5.086450582843	729679
654	2329	5.175738704796	729680
655	883	2.889585694631	7504
655	909	2.891377694631	7504
656	883	2.889585694631	0
656	909	2.891377694631	0
656	909	2.891377694631	1
656	1163	3.856498517655	0
656	1163	3.856498517655	0
656	1844	4.960005434858	0
656	1844	4.960005434858	0
656	2102	5.086450582843	0
656	2102	5.086450582843	0
656	2329	5.175738704796	0
656	2329	5.175738704796	0
657	883	2.889585694631	7504
657	909	2.891377694631	7503
657	1163	3.856498517655	7504
657	1844	4.960005434858	7504
657	2102	5.086450582843	7504
657	2329	5.175738704796	7504
658	883	2.889585694631	722170
658	909	2.891377694631	722171
658	1163	3.856498517655	722172
658	1844	4.960005434858	722173
658	2102	5.086450582843	722175
658	2329	5.175738704796	722176
659	885	2.889585694631	44
659	913	2.891377694631	40
659	1108	3.668399609363	44
659	1121	3.670215609363	41
659	1166	3.856498517655	40
659	1847	4.960005434858	40
659	2111	5.086450582843	40
659	2332	5.175738704796	40
660	885	2.889585694631	44
660	913	2.891377694631	40
660	1108	3.668399609363	44
660	1121	3.670215609363	41
660	1166	3.856498517655	40
660	1847	4.960005434858	40
660	2111	5.086450582843	40
660	2332	5.175738704796	40
661	885	2.889585694631	1
661	885	2.889585694631	0
661	913	2.891377694631	1
661	913	2.891377694631	0
661	1108	3.668399609363	1
661	1108	3.668399609363	0
661	1121	3.670215609363	1
661	1121	3.670215609363	0
661	1166	3.856498517655	1
661	1166	3.856498517655	0
661	1847	4.960005434858	1
661	1847	4.960005434858	0
661	2111	5.086450582843	1
661	2111	5.086450582843	0
661	2332	5.175738704796	1
661	2332	5.175738704796	0
662	885	2.889585694631	44
662	913	2.891377694631	40
662	1108	3.668399609363	44
662	1121	3.670215609363	41
662	1166	3.856498517655	40
662	1847	4.960005434858	40
662	2111	5.086450582843	40
662	2332	5.175738704796	40
663	885	2.889585694631	0
663	913	2.891377694631	0
663	1108	3.668399609363	0
663	1121	3.670215609363	0
663	1166	3.856498517655	0
663	1847	4.960005434858	0
663	2111	5.086450582843	0
663	2332	5.175738704796	0
664	885	2.889585694631	51
664	913	2.891377694631	47
664	1108	3.668399609363	51
664	1121	3.670215609363	48
664	1166	3.856498517655	47
664	1847	4.960005434858	47
664	2111	5.086450582843	47
664	2332	5.175738704796	47
665	897	2.890493694631	51
665	917	2.892253694631	47
665	1110	3.669307609363	51
665	1123	3.671099609363	48
665	1168	3.857374517655	47
665	1849	4.960881434858	47
665	2124	5.087326582843	47
665	2337	5.176614704796	47
666	897	2.890493694631	44
666	917	2.892253694631	40
666	1110	3.669307609363	44
666	1123	3.671099609363	41
666	1168	3.857374517655	40
666	1849	4.960881434858	40
666	2124	5.087326582843	40
666	2337	5.176614704796	40
667	899	2.890493694631	722396
667	919	2.892253694631	722397
667	1170	3.857374517655	722397
667	1851	4.960881434858	722397
667	2130	5.087326582843	722397
667	2339	5.176614704796	722397
668	899	2.890493694631	722170
668	919	2.892253694631	722171
668	1170	3.857374517655	722172
668	1851	4.960881434858	722173
668	2130	5.087326582843	722175
668	2339	5.176614704796	722176
669	899	2.890493694631	7504
669	919	2.892253694631	7503
669	1170	3.857374517655	7504
669	1851	4.960881434858	7504
669	2130	5.087326582843	7504
669	2339	5.176614704796	7504
670	899	2.890493694631	1
670	919	2.892253694631	0
670	1157	3.855614517655	1
670	1170	3.857374517655	0
670	1835	4.959121434858	1
670	1851	4.960881434858	0
670	2076	5.085558582843	2
670	2130	5.087326582843	0
670	2313	5.174854704796	1
670	2339	5.176614704796	0
671	909	2.891377694631	722170
671	1163	3.856498517655	722171
671	1844	4.960005434858	722172
671	2102	5.086450582843	722173
671	2329	5.175738704796	722175
672	909	2.891377694631	722397
672	1163	3.856498517655	722397
672	1844	4.960005434858	722397
672	2102	5.086450582843	722397
672	2329	5.175738704796	722397
673	909	2.891377694631	0
674	909	2.891377694631	1072
675	909	2.891377694631	4294967295
676	909	2.891377694631	0
676	1163	3.856498517655	0
676	1844	4.960005434858	0
676	2102	5.086450582843	0
676	2329	5.175738704796	0
677	919	2.892253694631	0.00176
677	1170	3.857374517655	0.00176
677	1851	4.960881434858	0.00176
677	2130	5.087326582843	0.001768
677	2339	5.176614704796	0.00176
678	919	2.892253694631	0.00022
678	1170	3.857374517655	0.0004125
678	1851	4.960881434858	0.0005809375
678	2130	5.087326582843	0.000729320313
678	2339	5.176614704796	0.000858155274
679	919	2.892253694631	0.65647
679	1170	3.857374517655	0.57460375
679	1851	4.960881434858	0.50294671875
679	2130	5.087326582843	0.440226761719
679	2339	5.176614704796	0.385327251465
680	919	2.892253694631	2.6261
680	1170	3.857374517655	2.2988275
680	1851	4.960881434858	2.0123678125
680	2130	5.087326582843	1.761636367189
680	2339	5.176614704796	1.542167161134
681	919	2.892253694631	1072
681	1170	3.857374517655	1608
681	1851	4.960881434858	2144
681	2130	5.087326582843	2680
681	2339	5.176614704796	3216
682	919	2.892253694631	4294967295
682	1170	3.857374517655	4294967295
682	1851	4.960881434858	4294967295
682	2130	5.087326582843	4294967295
682	2339	5.176614704796	4294967295
683	919	2.892253694631	0
683	1170	3.857374517655	0
683	1851	4.960881434858	0
683	2130	5.087326582843	0
683	2339	5.176614704796	0
684	1105	3.668399609363	0
684	1118	3.670215609363	0
685	1105	3.668399609363	7504
685	1118	3.670215609363	924831
685	1118	3.670215609363	924831
686	1105	3.668399609363	7504
686	1118	3.670215609363	7504
687	1105	3.668399609363	0
687	1118	3.670215609363	917327
688	1112	3.669307609363	924604
688	1112	3.669307609363	924604
688	1125	3.671099609363	924604
689	1112	3.669307609363	7504
689	1125	3.671099609363	7504
690	1112	3.669307609363	0
690	1125	3.671099609363	0
690	1125	3.671099609363	1
691	1112	3.669307609363	7504
691	1125	3.671099609363	7503
692	1112	3.669307609363	917100
692	1125	3.671099609363	917101
693	1118	3.670215609363	917326
693	1135	3.671975609363	917327
694	1118	3.670215609363	917100
694	1135	3.671975609363	917101
695	1118	3.670215609363	7504
695	1135	3.671975609363	7503
696	1118	3.670215609363	1
696	1135	3.671975609363	0
697	1125	3.671099609363	917100
698	1125	3.671099609363	917327
699	1125	3.671099609363	0
700	1125	3.671099609363	1072
701	1125	3.671099609363	4294967295
702	1125	3.671099609363	0
703	1135	3.671975609363	0.00176
704	1135	3.671975609363	0.00022
705	1135	3.671975609363	0.65647
706	1135	3.671975609363	2.6261
707	1135	3.671975609363	1072
708	1135	3.671975609363	4294967295
709	1135	3.671975609363	0

