file 148974 1642005292                                          
version 2
run BROADCAST-0-20220112-17:34:37-12560
attr configname BROADCAST
attr datetime 20220112-17:34:37
attr experiment BROADCAST
attr inifile omnetpp.ini
attr iterationvars ""
attr iterationvarsf ""
attr measurement ""
attr network scenario
attr processid 12560
attr repetition 0
attr replication #0
attr resultdir results
attr runnumber 0
attr seedset 0
param **.client[0].app[0].broadcast 0.7
param **.ppp[*].ppp.queue.typename "\"DropTailQueue\""
param **.tcp.typename "\"Tcp\""
param **.tcp.nagleEnabled false
param **.client[*].app[*].nPar 5
param **.client[*].app[*].fPar 0
param **.numApps 1
param **.client[*].app[*].typename "\"Node\""
param **.client[*].app[0].localPort index+1000
param **.client[*].app[0].localPortL 1234
param **.client[*].app[0].connectAddress "\"\""
param **.client[*].app[0].connectPort 1234
param *.configurator.dumpAddresses true
param *.configurator.dumpTopology true
param *.configurator.dumpLinks true
param *.configurator.dumpRoutes true

vector 0 scenario.client[0].ppp[0].ppp transmissionState:vector ETV
attr interpolationmode sample-hold
attr source transmissionStateChanged
attr title "tx state, vector"
vector 1 scenario.client[0].ppp[1].ppp transmissionState:vector ETV
attr interpolationmode sample-hold
attr source transmissionStateChanged
attr title "tx state, vector"
vector 2 scenario.client[0].ppp[2].ppp transmissionState:vector ETV
attr interpolationmode sample-hold
attr source transmissionStateChanged
attr title "tx state, vector"
vector 3 scenario.client[0].ppp[3].ppp transmissionState:vector ETV
attr interpolationmode sample-hold
attr source transmissionStateChanged
attr title "tx state, vector"
vector 4 scenario.client[1].ppp[0].ppp transmissionState:vector ETV
attr interpolationmode sample-hold
attr source transmissionStateChanged
attr title "tx state, vector"
vector 5 scenario.client[1].ppp[1].ppp transmissionState:vector ETV
attr interpolationmode sample-hold
attr source transmissionStateChanged
attr title "tx state, vector"
vector 6 scenario.client[1].ppp[2].ppp transmissionState:vector ETV
attr interpolationmode sample-hold
attr source transmissionStateChanged
attr title "tx state, vector"
vector 7 scenario.client[1].ppp[3].ppp transmissionState:vector ETV
attr interpolationmode sample-hold
attr source transmissionStateChanged
attr title "tx state, vector"
vector 8 scenario.client[2].ppp[0].ppp transmissionState:vector ETV
attr interpolationmode sample-hold
attr source transmissionStateChanged
attr title "tx state, vector"
vector 9 scenario.client[2].ppp[1].ppp transmissionState:vector ETV
attr interpolationmode sample-hold
attr source transmissionStateChanged
attr title "tx state, vector"
vector 10 scenario.client[2].ppp[2].ppp transmissionState:vector ETV
attr interpolationmode sample-hold
attr source transmissionStateChanged
attr title "tx state, vector"
vector 11 scenario.client[2].ppp[3].ppp transmissionState:vector ETV
attr interpolationmode sample-hold
attr source transmissionStateChanged
attr title "tx state, vector"
vector 12 scenario.client[3].ppp[0].ppp transmissionState:vector ETV
attr interpolationmode sample-hold
attr source transmissionStateChanged
attr title "tx state, vector"
vector 13 scenario.client[3].ppp[1].ppp transmissionState:vector ETV
attr interpolationmode sample-hold
attr source transmissionStateChanged
attr title "tx state, vector"
vector 14 scenario.client[3].ppp[2].ppp transmissionState:vector ETV
attr interpolationmode sample-hold
attr source transmissionStateChanged
attr title "tx state, vector"
vector 15 scenario.client[3].ppp[3].ppp transmissionState:vector ETV
attr interpolationmode sample-hold
attr source transmissionStateChanged
attr title "tx state, vector"
vector 16 scenario.client[4].ppp[0].ppp transmissionState:vector ETV
attr interpolationmode sample-hold
attr source transmissionStateChanged
attr title "tx state, vector"
vector 17 scenario.client[4].ppp[1].ppp transmissionState:vector ETV
attr interpolationmode sample-hold
attr source transmissionStateChanged
attr title "tx state, vector"
vector 18 scenario.client[4].ppp[2].ppp transmissionState:vector ETV
attr interpolationmode sample-hold
attr source transmissionStateChanged
attr title "tx state, vector"
vector 19 scenario.client[4].ppp[3].ppp transmissionState:vector ETV
attr interpolationmode sample-hold
attr source transmissionStateChanged
attr title "tx state, vector"
vector 20 scenario.client[0].tcp.conn-25 tcpRcvQueueBytes:vector ETV
attr interpolationmode sample-hold
vector 21 scenario.client[0].tcp.conn-25 rcvAdv:vector ETV
attr interpolationmode sample-hold
vector 22 scenario.client[0].tcp.conn-25 rcvWnd:vector ETV
attr interpolationmode sample-hold
vector 23 scenario.client[0].tcp.conn-25 sndAck:vector ETV
attr interpolationmode sample-hold
vector 24 scenario.client[0].ppp[0].ppp rcvdPkFromHl:vector(packetBytes) ETV
attr interpolationmode none
attr source packetReceivedFromUpper
attr title "packets received from higher layer, vector(packetBytes)"
vector 25 scenario.client[0].ppp[0].ppp.queue packetPushed:vector(packetBytes) ETV
attr interpolationmode none
attr title "packet pushed, vector(packetBytes)"
vector 26 scenario.client[0].ppp[0].ppp.queue queueLength:vector ETV
attr interpolationmode sample-hold
attr source "count(packetPushed) - count(packetPopped) - count(packetRemoved) - count(packetDropped)"
attr title "queue length, vector"
vector 27 scenario.client[0].ppp[0].ppp.queue packetPopped:vector(packetBytes) ETV
attr interpolationmode none
attr title "packet popped, vector(packetBytes)"
vector 28 scenario.client[0].ppp[0].ppp.queue queueingTime:vector ETV
attr interpolationmode none
attr source queueingTime(packetPopped)
attr title "queueing times, vector"
attr unit s
vector 29 scenario.client[0].ppp[0].ppp txPk:vector(packetBytes) ETV
attr interpolationmode none
attr source packetSentToLower
attr title "packets transmitted, vector(packetBytes)"
vector 30 scenario.client[1].ppp[0].ppp rxPkOk:vector(packetBytes) ETV
attr interpolationmode none
attr source rxPkOk
attr title "packets received OK, vector(packetBytes)"
vector 31 scenario.client[1].ppp[0].ppp passedUpPk:vector(packetBytes) ETV
attr interpolationmode none
attr source packetSentToUpper
attr title "packets passed to higher layer, vector(packetBytes)"
vector 32 scenario.client[1].tcp.conn-1 rcvSeq:vector ETV
attr interpolationmode sample-hold
vector 33 scenario.client[1].tcp.conn-1 rcvAck:vector ETV
attr interpolationmode sample-hold
vector 34 scenario.client[1].tcp.conn-26 rcvAdv:vector ETV
attr interpolationmode sample-hold
vector 35 scenario.client[1].tcp.conn-26 sndWnd:vector ETV
attr interpolationmode sample-hold
vector 36 scenario.client[1].tcp.conn-26 tcpRcvQueueBytes:vector ETV
attr interpolationmode sample-hold
vector 37 scenario.client[1].tcp.conn-26 rcvWnd:vector ETV
attr interpolationmode sample-hold
vector 38 scenario.client[1].tcp.conn-26 sndAck:vector ETV
attr interpolationmode sample-hold
vector 39 scenario.client[1].ppp[0].ppp rcvdPkFromHl:vector(packetBytes) ETV
attr interpolationmode none
attr source packetReceivedFromUpper
attr title "packets received from higher layer, vector(packetBytes)"
vector 40 scenario.client[1].ppp[0].ppp.queue packetPushed:vector(packetBytes) ETV
attr interpolationmode none
attr title "packet pushed, vector(packetBytes)"
vector 41 scenario.client[1].ppp[0].ppp.queue queueLength:vector ETV
attr interpolationmode sample-hold
attr source "count(packetPushed) - count(packetPopped) - count(packetRemoved) - count(packetDropped)"
attr title "queue length, vector"
vector 42 scenario.client[1].ppp[0].ppp.queue packetPopped:vector(packetBytes) ETV
attr interpolationmode none
attr title "packet popped, vector(packetBytes)"
vector 43 scenario.client[1].ppp[0].ppp.queue queueingTime:vector ETV
attr interpolationmode none
attr source queueingTime(packetPopped)
attr title "queueing times, vector"
attr unit s
vector 44 scenario.client[1].ppp[0].ppp txPk:vector(packetBytes) ETV
attr interpolationmode none
attr source packetSentToLower
attr title "packets transmitted, vector(packetBytes)"
vector 45 scenario.client[0].ppp[0].ppp rxPkOk:vector(packetBytes) ETV
attr interpolationmode none
attr source rxPkOk
attr title "packets received OK, vector(packetBytes)"
vector 46 scenario.client[0].ppp[0].ppp passedUpPk:vector(packetBytes) ETV
attr interpolationmode none
attr source packetSentToUpper
attr title "packets passed to higher layer, vector(packetBytes)"
vector 47 scenario.client[0].tcp.conn-25 rcvSeq:vector ETV
attr interpolationmode sample-hold
vector 48 scenario.client[0].tcp.conn-25 rcvAck:vector ETV
attr interpolationmode sample-hold
vector 49 scenario.client[0].tcp.conn-25 sndWnd:vector ETV
attr interpolationmode sample-hold
vector 50 scenario.client[0].tcp.conn-25 unacked:vector ETV
attr interpolationmode sample-hold
vector 51 scenario.client[1].tcp.conn-26 rcvSeq:vector ETV
attr interpolationmode sample-hold
vector 52 scenario.client[1].tcp.conn-26 rcvAck:vector ETV
attr interpolationmode sample-hold
vector 53 scenario.client[1].tcp.conn-26 unacked:vector ETV
attr interpolationmode sample-hold
vector 54 scenario.client[1].tcp.conn-26 cwnd:vector ETV
attr interpolationmode sample-hold
vector 55 scenario.client[1].tcp.conn-26 ssthresh:vector ETV
attr interpolationmode sample-hold
vector 56 scenario.client[1].tcp.conn-26 dupAcks:vector ETV
attr interpolationmode sample-hold
vector 57 scenario.client[0].tcp.conn-25 rtt:vector ETV
attr interpolationmode sample-hold
vector 58 scenario.client[0].tcp.conn-25 srtt:vector ETV
attr interpolationmode sample-hold
vector 59 scenario.client[0].tcp.conn-25 rttvar:vector ETV
attr interpolationmode sample-hold
vector 60 scenario.client[0].tcp.conn-25 rto:vector ETV
attr interpolationmode sample-hold
vector 61 scenario.client[0].tcp.conn-25 cwnd:vector ETV
attr interpolationmode sample-hold
vector 62 scenario.client[0].tcp.conn-25 ssthresh:vector ETV
attr interpolationmode sample-hold
vector 63 scenario.client[0].tcp.conn-25 dupAcks:vector ETV
attr interpolationmode sample-hold
vector 64 scenario.client[0].tcp.conn-27 tcpRcvQueueBytes:vector ETV
attr interpolationmode sample-hold
vector 65 scenario.client[0].tcp.conn-27 rcvAdv:vector ETV
attr interpolationmode sample-hold
vector 66 scenario.client[0].tcp.conn-27 rcvWnd:vector ETV
attr interpolationmode sample-hold
vector 67 scenario.client[0].tcp.conn-27 sndAck:vector ETV
attr interpolationmode sample-hold
vector 68 scenario.client[0].ppp[3].ppp rcvdPkFromHl:vector(packetBytes) ETV
attr interpolationmode none
attr source packetReceivedFromUpper
attr title "packets received from higher layer, vector(packetBytes)"
vector 69 scenario.client[0].ppp[3].ppp.queue packetPushed:vector(packetBytes) ETV
attr interpolationmode none
attr title "packet pushed, vector(packetBytes)"
vector 70 scenario.client[0].ppp[3].ppp.queue queueLength:vector ETV
attr interpolationmode sample-hold
attr source "count(packetPushed) - count(packetPopped) - count(packetRemoved) - count(packetDropped)"
attr title "queue length, vector"
vector 71 scenario.client[0].ppp[3].ppp.queue packetPopped:vector(packetBytes) ETV
attr interpolationmode none
attr title "packet popped, vector(packetBytes)"
vector 72 scenario.client[0].ppp[3].ppp.queue queueingTime:vector ETV
attr interpolationmode none
attr source queueingTime(packetPopped)
attr title "queueing times, vector"
attr unit s
vector 73 scenario.client[0].ppp[3].ppp txPk:vector(packetBytes) ETV
attr interpolationmode none
attr source packetSentToLower
attr title "packets transmitted, vector(packetBytes)"
vector 74 scenario.client[4].ppp[0].ppp rxPkOk:vector(packetBytes) ETV
attr interpolationmode none
attr source rxPkOk
attr title "packets received OK, vector(packetBytes)"
vector 75 scenario.client[4].ppp[0].ppp passedUpPk:vector(packetBytes) ETV
attr interpolationmode none
attr source packetSentToUpper
attr title "packets passed to higher layer, vector(packetBytes)"
vector 76 scenario.client[4].tcp.conn-4 rcvSeq:vector ETV
attr interpolationmode sample-hold
vector 77 scenario.client[4].tcp.conn-4 rcvAck:vector ETV
attr interpolationmode sample-hold
vector 78 scenario.client[4].tcp.conn-28 rcvAdv:vector ETV
attr interpolationmode sample-hold
vector 79 scenario.client[4].tcp.conn-28 sndWnd:vector ETV
attr interpolationmode sample-hold
vector 80 scenario.client[4].tcp.conn-28 tcpRcvQueueBytes:vector ETV
attr interpolationmode sample-hold
vector 81 scenario.client[4].tcp.conn-28 rcvWnd:vector ETV
attr interpolationmode sample-hold
vector 82 scenario.client[4].tcp.conn-28 sndAck:vector ETV
attr interpolationmode sample-hold
vector 83 scenario.client[4].ppp[0].ppp rcvdPkFromHl:vector(packetBytes) ETV
attr interpolationmode none
attr source packetReceivedFromUpper
attr title "packets received from higher layer, vector(packetBytes)"
vector 84 scenario.client[4].ppp[0].ppp.queue packetPushed:vector(packetBytes) ETV
attr interpolationmode none
attr title "packet pushed, vector(packetBytes)"
vector 85 scenario.client[4].ppp[0].ppp.queue queueLength:vector ETV
attr interpolationmode sample-hold
attr source "count(packetPushed) - count(packetPopped) - count(packetRemoved) - count(packetDropped)"
attr title "queue length, vector"
vector 86 scenario.client[4].ppp[0].ppp.queue packetPopped:vector(packetBytes) ETV
attr interpolationmode none
attr title "packet popped, vector(packetBytes)"
vector 87 scenario.client[4].ppp[0].ppp.queue queueingTime:vector ETV
attr interpolationmode none
attr source queueingTime(packetPopped)
attr title "queueing times, vector"
attr unit s
vector 88 scenario.client[4].ppp[0].ppp txPk:vector(packetBytes) ETV
attr interpolationmode none
attr source packetSentToLower
attr title "packets transmitted, vector(packetBytes)"
vector 89 scenario.client[0].ppp[3].ppp rxPkOk:vector(packetBytes) ETV
attr interpolationmode none
attr source rxPkOk
attr title "packets received OK, vector(packetBytes)"
vector 90 scenario.client[0].ppp[3].ppp passedUpPk:vector(packetBytes) ETV
attr interpolationmode none
attr source packetSentToUpper
attr title "packets passed to higher layer, vector(packetBytes)"
vector 91 scenario.client[0].tcp.conn-27 rcvSeq:vector ETV
attr interpolationmode sample-hold
vector 92 scenario.client[0].tcp.conn-27 rcvAck:vector ETV
attr interpolationmode sample-hold
vector 93 scenario.client[0].tcp.conn-27 sndWnd:vector ETV
attr interpolationmode sample-hold
vector 94 scenario.client[0].tcp.conn-27 unacked:vector ETV
attr interpolationmode sample-hold
vector 95 scenario.client[4].tcp.conn-28 rcvSeq:vector ETV
attr interpolationmode sample-hold
vector 96 scenario.client[4].tcp.conn-28 rcvAck:vector ETV
attr interpolationmode sample-hold
vector 97 scenario.client[4].tcp.conn-28 unacked:vector ETV
attr interpolationmode sample-hold
vector 98 scenario.client[4].tcp.conn-28 cwnd:vector ETV
attr interpolationmode sample-hold
vector 99 scenario.client[4].tcp.conn-28 ssthresh:vector ETV
attr interpolationmode sample-hold
vector 100 scenario.client[4].tcp.conn-28 dupAcks:vector ETV
attr interpolationmode sample-hold
vector 101 scenario.client[0].tcp.conn-27 rtt:vector ETV
attr interpolationmode sample-hold
vector 102 scenario.client[0].tcp.conn-27 srtt:vector ETV
attr interpolationmode sample-hold
vector 103 scenario.client[0].tcp.conn-27 rttvar:vector ETV
attr interpolationmode sample-hold
vector 104 scenario.client[0].tcp.conn-27 rto:vector ETV
attr interpolationmode sample-hold
vector 105 scenario.client[0].tcp.conn-27 cwnd:vector ETV
attr interpolationmode sample-hold
vector 106 scenario.client[0].tcp.conn-27 ssthresh:vector ETV
attr interpolationmode sample-hold
vector 107 scenario.client[0].tcp.conn-27 dupAcks:vector ETV
attr interpolationmode sample-hold
vector 108 scenario.client[1].tcp.conn-29 tcpRcvQueueBytes:vector ETV
attr interpolationmode sample-hold
vector 109 scenario.client[1].tcp.conn-29 rcvAdv:vector ETV
attr interpolationmode sample-hold
vector 110 scenario.client[1].tcp.conn-29 rcvWnd:vector ETV
attr interpolationmode sample-hold
vector 111 scenario.client[1].tcp.conn-29 sndAck:vector ETV
attr interpolationmode sample-hold
vector 112 scenario.client[0].tcp.conn-0 rcvSeq:vector ETV
attr interpolationmode sample-hold
vector 113 scenario.client[0].tcp.conn-0 rcvAck:vector ETV
attr interpolationmode sample-hold
vector 114 scenario.client[0].tcp.conn-30 rcvAdv:vector ETV
attr interpolationmode sample-hold
vector 115 scenario.client[0].tcp.conn-30 sndWnd:vector ETV
attr interpolationmode sample-hold
vector 116 scenario.client[0].tcp.conn-30 tcpRcvQueueBytes:vector ETV
attr interpolationmode sample-hold
vector 117 scenario.client[0].tcp.conn-30 rcvWnd:vector ETV
attr interpolationmode sample-hold
vector 118 scenario.client[0].tcp.conn-30 sndAck:vector ETV
attr interpolationmode sample-hold
vector 119 scenario.client[1].tcp.conn-29 rcvSeq:vector ETV
attr interpolationmode sample-hold
vector 120 scenario.client[1].tcp.conn-29 rcvAck:vector ETV
attr interpolationmode sample-hold
vector 121 scenario.client[1].tcp.conn-29 sndWnd:vector ETV
attr interpolationmode sample-hold
vector 122 scenario.client[1].tcp.conn-29 unacked:vector ETV
attr interpolationmode sample-hold
vector 123 scenario.client[0].tcp.conn-30 rcvSeq:vector ETV
attr interpolationmode sample-hold
vector 124 scenario.client[0].tcp.conn-30 rcvAck:vector ETV
attr interpolationmode sample-hold
vector 125 scenario.client[0].tcp.conn-30 unacked:vector ETV
attr interpolationmode sample-hold
vector 126 scenario.client[0].tcp.conn-30 cwnd:vector ETV
attr interpolationmode sample-hold
vector 127 scenario.client[0].tcp.conn-30 ssthresh:vector ETV
attr interpolationmode sample-hold
vector 128 scenario.client[0].tcp.conn-30 dupAcks:vector ETV
attr interpolationmode sample-hold
vector 129 scenario.client[1].tcp.conn-29 rtt:vector ETV
attr interpolationmode sample-hold
vector 130 scenario.client[1].tcp.conn-29 srtt:vector ETV
attr interpolationmode sample-hold
vector 131 scenario.client[1].tcp.conn-29 rttvar:vector ETV
attr interpolationmode sample-hold
vector 132 scenario.client[1].tcp.conn-29 rto:vector ETV
attr interpolationmode sample-hold
vector 133 scenario.client[1].tcp.conn-29 cwnd:vector ETV
attr interpolationmode sample-hold
vector 134 scenario.client[1].tcp.conn-29 ssthresh:vector ETV
attr interpolationmode sample-hold
vector 135 scenario.client[1].tcp.conn-29 dupAcks:vector ETV
attr interpolationmode sample-hold
vector 136 scenario.client[0].tcp.conn-31 tcpRcvQueueBytes:vector ETV
attr interpolationmode sample-hold
vector 137 scenario.client[0].tcp.conn-31 rcvAdv:vector ETV
attr interpolationmode sample-hold
vector 138 scenario.client[0].tcp.conn-31 rcvWnd:vector ETV
attr interpolationmode sample-hold
vector 139 scenario.client[0].tcp.conn-31 sndAck:vector ETV
attr interpolationmode sample-hold
vector 140 scenario.client[0].ppp[2].ppp rcvdPkFromHl:vector(packetBytes) ETV
attr interpolationmode none
attr source packetReceivedFromUpper
attr title "packets received from higher layer, vector(packetBytes)"
vector 141 scenario.client[0].ppp[2].ppp.queue packetPushed:vector(packetBytes) ETV
attr interpolationmode none
attr title "packet pushed, vector(packetBytes)"
vector 142 scenario.client[0].ppp[2].ppp.queue queueLength:vector ETV
attr interpolationmode sample-hold
attr source "count(packetPushed) - count(packetPopped) - count(packetRemoved) - count(packetDropped)"
attr title "queue length, vector"
vector 143 scenario.client[0].ppp[2].ppp.queue packetPopped:vector(packetBytes) ETV
attr interpolationmode none
attr title "packet popped, vector(packetBytes)"
vector 144 scenario.client[0].ppp[2].ppp.queue queueingTime:vector ETV
attr interpolationmode none
attr source queueingTime(packetPopped)
attr title "queueing times, vector"
attr unit s
vector 145 scenario.client[0].ppp[2].ppp txPk:vector(packetBytes) ETV
attr interpolationmode none
attr source packetSentToLower
attr title "packets transmitted, vector(packetBytes)"
vector 146 scenario.client[3].ppp[0].ppp rxPkOk:vector(packetBytes) ETV
attr interpolationmode none
attr source rxPkOk
attr title "packets received OK, vector(packetBytes)"
vector 147 scenario.client[3].ppp[0].ppp passedUpPk:vector(packetBytes) ETV
attr interpolationmode none
attr source packetSentToUpper
attr title "packets passed to higher layer, vector(packetBytes)"
vector 148 scenario.client[3].tcp.conn-3 rcvSeq:vector ETV
attr interpolationmode sample-hold
vector 149 scenario.client[3].tcp.conn-3 rcvAck:vector ETV
attr interpolationmode sample-hold
vector 150 scenario.client[3].tcp.conn-32 rcvAdv:vector ETV
attr interpolationmode sample-hold
vector 151 scenario.client[3].tcp.conn-32 sndWnd:vector ETV
attr interpolationmode sample-hold
vector 152 scenario.client[3].tcp.conn-32 tcpRcvQueueBytes:vector ETV
attr interpolationmode sample-hold
vector 153 scenario.client[3].tcp.conn-32 rcvWnd:vector ETV
attr interpolationmode sample-hold
vector 154 scenario.client[3].tcp.conn-32 sndAck:vector ETV
attr interpolationmode sample-hold
vector 155 scenario.client[3].ppp[0].ppp rcvdPkFromHl:vector(packetBytes) ETV
attr interpolationmode none
attr source packetReceivedFromUpper
attr title "packets received from higher layer, vector(packetBytes)"
vector 156 scenario.client[3].ppp[0].ppp.queue packetPushed:vector(packetBytes) ETV
attr interpolationmode none
attr title "packet pushed, vector(packetBytes)"
vector 157 scenario.client[3].ppp[0].ppp.queue queueLength:vector ETV
attr interpolationmode sample-hold
attr source "count(packetPushed) - count(packetPopped) - count(packetRemoved) - count(packetDropped)"
attr title "queue length, vector"
vector 158 scenario.client[3].ppp[0].ppp.queue packetPopped:vector(packetBytes) ETV
attr interpolationmode none
attr title "packet popped, vector(packetBytes)"
vector 159 scenario.client[3].ppp[0].ppp.queue queueingTime:vector ETV
attr interpolationmode none
attr source queueingTime(packetPopped)
attr title "queueing times, vector"
attr unit s
vector 160 scenario.client[3].ppp[0].ppp txPk:vector(packetBytes) ETV
attr interpolationmode none
attr source packetSentToLower
attr title "packets transmitted, vector(packetBytes)"
vector 161 scenario.client[0].ppp[2].ppp rxPkOk:vector(packetBytes) ETV
attr interpolationmode none
attr source rxPkOk
attr title "packets received OK, vector(packetBytes)"
vector 162 scenario.client[0].ppp[2].ppp passedUpPk:vector(packetBytes) ETV
attr interpolationmode none
attr source packetSentToUpper
attr title "packets passed to higher layer, vector(packetBytes)"
vector 163 scenario.client[0].tcp.conn-31 rcvSeq:vector ETV
attr interpolationmode sample-hold
vector 164 scenario.client[0].tcp.conn-31 rcvAck:vector ETV
attr interpolationmode sample-hold
vector 165 scenario.client[0].tcp.conn-31 sndWnd:vector ETV
attr interpolationmode sample-hold
vector 166 scenario.client[0].tcp.conn-31 unacked:vector ETV
attr interpolationmode sample-hold
vector 167 scenario.client[3].tcp.conn-32 rcvSeq:vector ETV
attr interpolationmode sample-hold
vector 168 scenario.client[3].tcp.conn-32 rcvAck:vector ETV
attr interpolationmode sample-hold
vector 169 scenario.client[3].tcp.conn-32 unacked:vector ETV
attr interpolationmode sample-hold
vector 170 scenario.client[3].tcp.conn-32 cwnd:vector ETV
attr interpolationmode sample-hold
vector 171 scenario.client[3].tcp.conn-32 ssthresh:vector ETV
attr interpolationmode sample-hold
vector 172 scenario.client[3].tcp.conn-32 dupAcks:vector ETV
attr interpolationmode sample-hold
vector 173 scenario.client[0].tcp.conn-31 rtt:vector ETV
attr interpolationmode sample-hold
vector 174 scenario.client[0].tcp.conn-31 srtt:vector ETV
attr interpolationmode sample-hold
vector 175 scenario.client[0].tcp.conn-31 rttvar:vector ETV
attr interpolationmode sample-hold
vector 176 scenario.client[0].tcp.conn-31 rto:vector ETV
attr interpolationmode sample-hold
vector 177 scenario.client[0].tcp.conn-31 cwnd:vector ETV
attr interpolationmode sample-hold
vector 178 scenario.client[0].tcp.conn-31 ssthresh:vector ETV
attr interpolationmode sample-hold
vector 179 scenario.client[0].tcp.conn-31 dupAcks:vector ETV
attr interpolationmode sample-hold
vector 180 scenario.client[0].tcp.conn-33 tcpRcvQueueBytes:vector ETV
attr interpolationmode sample-hold
vector 181 scenario.client[0].tcp.conn-33 rcvAdv:vector ETV
attr interpolationmode sample-hold
vector 182 scenario.client[0].tcp.conn-33 rcvWnd:vector ETV
attr interpolationmode sample-hold
vector 183 scenario.client[0].tcp.conn-33 sndAck:vector ETV
attr interpolationmode sample-hold
vector 184 scenario.client[0].ppp[1].ppp rcvdPkFromHl:vector(packetBytes) ETV
attr interpolationmode none
attr source packetReceivedFromUpper
attr title "packets received from higher layer, vector(packetBytes)"
vector 185 scenario.client[0].ppp[1].ppp.queue packetPushed:vector(packetBytes) ETV
attr interpolationmode none
attr title "packet pushed, vector(packetBytes)"
vector 186 scenario.client[0].ppp[1].ppp.queue queueLength:vector ETV
attr interpolationmode sample-hold
attr source "count(packetPushed) - count(packetPopped) - count(packetRemoved) - count(packetDropped)"
attr title "queue length, vector"
vector 187 scenario.client[0].ppp[1].ppp.queue packetPopped:vector(packetBytes) ETV
attr interpolationmode none
attr title "packet popped, vector(packetBytes)"
vector 188 scenario.client[0].ppp[1].ppp.queue queueingTime:vector ETV
attr interpolationmode none
attr source queueingTime(packetPopped)
attr title "queueing times, vector"
attr unit s
vector 189 scenario.client[0].ppp[1].ppp txPk:vector(packetBytes) ETV
attr interpolationmode none
attr source packetSentToLower
attr title "packets transmitted, vector(packetBytes)"
vector 190 scenario.client[2].ppp[0].ppp rxPkOk:vector(packetBytes) ETV
attr interpolationmode none
attr source rxPkOk
attr title "packets received OK, vector(packetBytes)"
vector 191 scenario.client[2].ppp[0].ppp passedUpPk:vector(packetBytes) ETV
attr interpolationmode none
attr source packetSentToUpper
attr title "packets passed to higher layer, vector(packetBytes)"
vector 192 scenario.client[2].tcp.conn-2 rcvSeq:vector ETV
attr interpolationmode sample-hold
vector 193 scenario.client[2].tcp.conn-2 rcvAck:vector ETV
attr interpolationmode sample-hold
vector 194 scenario.client[2].tcp.conn-34 rcvAdv:vector ETV
attr interpolationmode sample-hold
vector 195 scenario.client[2].tcp.conn-34 sndWnd:vector ETV
attr interpolationmode sample-hold
vector 196 scenario.client[2].tcp.conn-34 tcpRcvQueueBytes:vector ETV
attr interpolationmode sample-hold
vector 197 scenario.client[2].tcp.conn-34 rcvWnd:vector ETV
attr interpolationmode sample-hold
vector 198 scenario.client[2].tcp.conn-34 sndAck:vector ETV
attr interpolationmode sample-hold
vector 199 scenario.client[2].ppp[0].ppp rcvdPkFromHl:vector(packetBytes) ETV
attr interpolationmode none
attr source packetReceivedFromUpper
attr title "packets received from higher layer, vector(packetBytes)"
vector 200 scenario.client[2].ppp[0].ppp.queue packetPushed:vector(packetBytes) ETV
attr interpolationmode none
attr title "packet pushed, vector(packetBytes)"
vector 201 scenario.client[2].ppp[0].ppp.queue queueLength:vector ETV
attr interpolationmode sample-hold
attr source "count(packetPushed) - count(packetPopped) - count(packetRemoved) - count(packetDropped)"
attr title "queue length, vector"
vector 202 scenario.client[2].ppp[0].ppp.queue packetPopped:vector(packetBytes) ETV
attr interpolationmode none
attr title "packet popped, vector(packetBytes)"
vector 203 scenario.client[2].ppp[0].ppp.queue queueingTime:vector ETV
attr interpolationmode none
attr source queueingTime(packetPopped)
attr title "queueing times, vector"
attr unit s
vector 204 scenario.client[2].ppp[0].ppp txPk:vector(packetBytes) ETV
attr interpolationmode none
attr source packetSentToLower
attr title "packets transmitted, vector(packetBytes)"
vector 205 scenario.client[0].ppp[1].ppp rxPkOk:vector(packetBytes) ETV
attr interpolationmode none
attr source rxPkOk
attr title "packets received OK, vector(packetBytes)"
vector 206 scenario.client[0].ppp[1].ppp passedUpPk:vector(packetBytes) ETV
attr interpolationmode none
attr source packetSentToUpper
attr title "packets passed to higher layer, vector(packetBytes)"
vector 207 scenario.client[0].tcp.conn-33 rcvSeq:vector ETV
attr interpolationmode sample-hold
vector 208 scenario.client[0].tcp.conn-33 rcvAck:vector ETV
attr interpolationmode sample-hold
vector 209 scenario.client[0].tcp.conn-33 sndWnd:vector ETV
attr interpolationmode sample-hold
vector 210 scenario.client[0].tcp.conn-33 unacked:vector ETV
attr interpolationmode sample-hold
vector 211 scenario.client[2].tcp.conn-34 rcvSeq:vector ETV
attr interpolationmode sample-hold
vector 212 scenario.client[2].tcp.conn-34 rcvAck:vector ETV
attr interpolationmode sample-hold
vector 213 scenario.client[2].tcp.conn-34 unacked:vector ETV
attr interpolationmode sample-hold
vector 214 scenario.client[2].tcp.conn-34 cwnd:vector ETV
attr interpolationmode sample-hold
vector 215 scenario.client[2].tcp.conn-34 ssthresh:vector ETV
attr interpolationmode sample-hold
vector 216 scenario.client[2].tcp.conn-34 dupAcks:vector ETV
attr interpolationmode sample-hold
vector 217 scenario.client[0].tcp.conn-33 rtt:vector ETV
attr interpolationmode sample-hold
vector 218 scenario.client[0].tcp.conn-33 srtt:vector ETV
attr interpolationmode sample-hold
vector 219 scenario.client[0].tcp.conn-33 rttvar:vector ETV
attr interpolationmode sample-hold
vector 220 scenario.client[0].tcp.conn-33 rto:vector ETV
attr interpolationmode sample-hold
vector 221 scenario.client[0].tcp.conn-33 cwnd:vector ETV
attr interpolationmode sample-hold
vector 222 scenario.client[0].tcp.conn-33 ssthresh:vector ETV
attr interpolationmode sample-hold
vector 223 scenario.client[0].tcp.conn-33 dupAcks:vector ETV
attr interpolationmode sample-hold
vector 224 scenario.client[3].tcp.conn-35 tcpRcvQueueBytes:vector ETV
attr interpolationmode sample-hold
vector 225 scenario.client[3].tcp.conn-35 rcvAdv:vector ETV
attr interpolationmode sample-hold
vector 226 scenario.client[3].tcp.conn-35 rcvWnd:vector ETV
attr interpolationmode sample-hold
vector 227 scenario.client[3].tcp.conn-35 sndAck:vector ETV
attr interpolationmode sample-hold
vector 228 scenario.client[0].tcp.conn-36 rcvAdv:vector ETV
attr interpolationmode sample-hold
vector 229 scenario.client[0].tcp.conn-36 sndWnd:vector ETV
attr interpolationmode sample-hold
vector 230 scenario.client[0].tcp.conn-36 tcpRcvQueueBytes:vector ETV
attr interpolationmode sample-hold
vector 231 scenario.client[0].tcp.conn-36 rcvWnd:vector ETV
attr interpolationmode sample-hold
vector 232 scenario.client[0].tcp.conn-36 sndAck:vector ETV
attr interpolationmode sample-hold
vector 233 scenario.client[3].tcp.conn-35 rcvSeq:vector ETV
attr interpolationmode sample-hold
vector 234 scenario.client[3].tcp.conn-35 rcvAck:vector ETV
attr interpolationmode sample-hold
vector 235 scenario.client[3].tcp.conn-35 sndWnd:vector ETV
attr interpolationmode sample-hold
vector 236 scenario.client[3].tcp.conn-35 unacked:vector ETV
attr interpolationmode sample-hold
vector 237 scenario.client[0].tcp.conn-36 rcvSeq:vector ETV
attr interpolationmode sample-hold
vector 238 scenario.client[0].tcp.conn-36 rcvAck:vector ETV
attr interpolationmode sample-hold
vector 239 scenario.client[0].tcp.conn-36 unacked:vector ETV
attr interpolationmode sample-hold
vector 240 scenario.client[0].tcp.conn-36 cwnd:vector ETV
attr interpolationmode sample-hold
vector 241 scenario.client[0].tcp.conn-36 ssthresh:vector ETV
attr interpolationmode sample-hold
vector 242 scenario.client[0].tcp.conn-36 dupAcks:vector ETV
attr interpolationmode sample-hold
vector 243 scenario.client[3].tcp.conn-35 rtt:vector ETV
attr interpolationmode sample-hold
vector 244 scenario.client[3].tcp.conn-35 srtt:vector ETV
attr interpolationmode sample-hold
vector 245 scenario.client[3].tcp.conn-35 rttvar:vector ETV
attr interpolationmode sample-hold
vector 246 scenario.client[3].tcp.conn-35 rto:vector ETV
attr interpolationmode sample-hold
vector 247 scenario.client[3].tcp.conn-35 cwnd:vector ETV
attr interpolationmode sample-hold
vector 248 scenario.client[3].tcp.conn-35 ssthresh:vector ETV
attr interpolationmode sample-hold
vector 249 scenario.client[3].tcp.conn-35 dupAcks:vector ETV
attr interpolationmode sample-hold
vector 250 scenario.client[2].tcp.conn-37 tcpRcvQueueBytes:vector ETV
attr interpolationmode sample-hold
vector 251 scenario.client[2].tcp.conn-37 rcvAdv:vector ETV
attr interpolationmode sample-hold
vector 252 scenario.client[2].tcp.conn-37 rcvWnd:vector ETV
attr interpolationmode sample-hold
vector 253 scenario.client[2].tcp.conn-37 sndAck:vector ETV
attr interpolationmode sample-hold
vector 254 scenario.client[0].tcp.conn-38 rcvAdv:vector ETV
attr interpolationmode sample-hold
vector 255 scenario.client[0].tcp.conn-38 sndWnd:vector ETV
attr interpolationmode sample-hold
vector 256 scenario.client[0].tcp.conn-38 tcpRcvQueueBytes:vector ETV
attr interpolationmode sample-hold
vector 257 scenario.client[0].tcp.conn-38 rcvWnd:vector ETV
attr interpolationmode sample-hold
vector 258 scenario.client[0].tcp.conn-38 sndAck:vector ETV
attr interpolationmode sample-hold
vector 259 scenario.client[2].tcp.conn-37 rcvSeq:vector ETV
attr interpolationmode sample-hold
vector 260 scenario.client[2].tcp.conn-37 rcvAck:vector ETV
attr interpolationmode sample-hold
vector 261 scenario.client[2].tcp.conn-37 sndWnd:vector ETV
attr interpolationmode sample-hold
vector 262 scenario.client[2].tcp.conn-37 unacked:vector ETV
attr interpolationmode sample-hold
vector 263 scenario.client[0].tcp.conn-38 rcvSeq:vector ETV
attr interpolationmode sample-hold
vector 264 scenario.client[0].tcp.conn-38 rcvAck:vector ETV
attr interpolationmode sample-hold
vector 265 scenario.client[0].tcp.conn-38 unacked:vector ETV
attr interpolationmode sample-hold
vector 266 scenario.client[0].tcp.conn-38 cwnd:vector ETV
attr interpolationmode sample-hold
vector 267 scenario.client[0].tcp.conn-38 ssthresh:vector ETV
attr interpolationmode sample-hold
vector 268 scenario.client[0].tcp.conn-38 dupAcks:vector ETV
attr interpolationmode sample-hold
vector 269 scenario.client[2].tcp.conn-37 rtt:vector ETV
attr interpolationmode sample-hold
vector 270 scenario.client[2].tcp.conn-37 srtt:vector ETV
attr interpolationmode sample-hold
vector 271 scenario.client[2].tcp.conn-37 rttvar:vector ETV
attr interpolationmode sample-hold
vector 272 scenario.client[2].tcp.conn-37 rto:vector ETV
attr interpolationmode sample-hold
vector 273 scenario.client[2].tcp.conn-37 cwnd:vector ETV
attr interpolationmode sample-hold
vector 274 scenario.client[2].tcp.conn-37 ssthresh:vector ETV
attr interpolationmode sample-hold
vector 275 scenario.client[2].tcp.conn-37 dupAcks:vector ETV
attr interpolationmode sample-hold
vector 276 scenario.client[2].tcp.conn-39 tcpRcvQueueBytes:vector ETV
attr interpolationmode sample-hold
vector 277 scenario.client[2].tcp.conn-39 rcvAdv:vector ETV
attr interpolationmode sample-hold
vector 278 scenario.client[2].tcp.conn-39 rcvWnd:vector ETV
attr interpolationmode sample-hold
vector 279 scenario.client[2].tcp.conn-39 sndAck:vector ETV
attr interpolationmode sample-hold
vector 280 scenario.client[2].ppp[2].ppp rcvdPkFromHl:vector(packetBytes) ETV
attr interpolationmode none
attr source packetReceivedFromUpper
attr title "packets received from higher layer, vector(packetBytes)"
vector 281 scenario.client[2].ppp[2].ppp.queue packetPushed:vector(packetBytes) ETV
attr interpolationmode none
attr title "packet pushed, vector(packetBytes)"
vector 282 scenario.client[2].ppp[2].ppp.queue queueLength:vector ETV
attr interpolationmode sample-hold
attr source "count(packetPushed) - count(packetPopped) - count(packetRemoved) - count(packetDropped)"
attr title "queue length, vector"
vector 283 scenario.client[2].ppp[2].ppp.queue packetPopped:vector(packetBytes) ETV
attr interpolationmode none
attr title "packet popped, vector(packetBytes)"
vector 284 scenario.client[2].ppp[2].ppp.queue queueingTime:vector ETV
attr interpolationmode none
attr source queueingTime(packetPopped)
attr title "queueing times, vector"
attr unit s
vector 285 scenario.client[2].ppp[2].ppp txPk:vector(packetBytes) ETV
attr interpolationmode none
attr source packetSentToLower
attr title "packets transmitted, vector(packetBytes)"
vector 286 scenario.client[3].ppp[2].ppp rxPkOk:vector(packetBytes) ETV
attr interpolationmode none
attr source rxPkOk
attr title "packets received OK, vector(packetBytes)"
vector 287 scenario.client[3].ppp[2].ppp passedUpPk:vector(packetBytes) ETV
attr interpolationmode none
attr source packetSentToUpper
attr title "packets passed to higher layer, vector(packetBytes)"
vector 288 scenario.client[3].tcp.conn-40 rcvAdv:vector ETV
attr interpolationmode sample-hold
vector 289 scenario.client[3].tcp.conn-40 sndWnd:vector ETV
attr interpolationmode sample-hold
vector 290 scenario.client[3].tcp.conn-40 tcpRcvQueueBytes:vector ETV
attr interpolationmode sample-hold
vector 291 scenario.client[3].tcp.conn-40 rcvWnd:vector ETV
attr interpolationmode sample-hold
vector 292 scenario.client[3].tcp.conn-40 sndAck:vector ETV
attr interpolationmode sample-hold
vector 293 scenario.client[3].ppp[2].ppp rcvdPkFromHl:vector(packetBytes) ETV
attr interpolationmode none
attr source packetReceivedFromUpper
attr title "packets received from higher layer, vector(packetBytes)"
vector 294 scenario.client[3].ppp[2].ppp.queue packetPushed:vector(packetBytes) ETV
attr interpolationmode none
attr title "packet pushed, vector(packetBytes)"
vector 295 scenario.client[3].ppp[2].ppp.queue queueLength:vector ETV
attr interpolationmode sample-hold
attr source "count(packetPushed) - count(packetPopped) - count(packetRemoved) - count(packetDropped)"
attr title "queue length, vector"
vector 296 scenario.client[3].ppp[2].ppp.queue packetPopped:vector(packetBytes) ETV
attr interpolationmode none
attr title "packet popped, vector(packetBytes)"
vector 297 scenario.client[3].ppp[2].ppp.queue queueingTime:vector ETV
attr interpolationmode none
attr source queueingTime(packetPopped)
attr title "queueing times, vector"
attr unit s
vector 298 scenario.client[3].ppp[2].ppp txPk:vector(packetBytes) ETV
attr interpolationmode none
attr source packetSentToLower
attr title "packets transmitted, vector(packetBytes)"
vector 299 scenario.client[2].ppp[2].ppp rxPkOk:vector(packetBytes) ETV
attr interpolationmode none
attr source rxPkOk
attr title "packets received OK, vector(packetBytes)"
vector 300 scenario.client[2].ppp[2].ppp passedUpPk:vector(packetBytes) ETV
attr interpolationmode none
attr source packetSentToUpper
attr title "packets passed to higher layer, vector(packetBytes)"
vector 301 scenario.client[2].tcp.conn-39 rcvSeq:vector ETV
attr interpolationmode sample-hold
vector 302 scenario.client[2].tcp.conn-39 rcvAck:vector ETV
attr interpolationmode sample-hold
vector 303 scenario.client[2].tcp.conn-39 sndWnd:vector ETV
attr interpolationmode sample-hold
vector 304 scenario.client[2].tcp.conn-39 unacked:vector ETV
attr interpolationmode sample-hold
vector 305 scenario.client[3].tcp.conn-40 rcvSeq:vector ETV
attr interpolationmode sample-hold
vector 306 scenario.client[3].tcp.conn-40 rcvAck:vector ETV
attr interpolationmode sample-hold
vector 307 scenario.client[3].tcp.conn-40 unacked:vector ETV
attr interpolationmode sample-hold
vector 308 scenario.client[3].tcp.conn-40 cwnd:vector ETV
attr interpolationmode sample-hold
vector 309 scenario.client[3].tcp.conn-40 ssthresh:vector ETV
attr interpolationmode sample-hold
vector 310 scenario.client[3].tcp.conn-40 dupAcks:vector ETV
attr interpolationmode sample-hold
vector 311 scenario.client[2].tcp.conn-39 rtt:vector ETV
attr interpolationmode sample-hold
vector 312 scenario.client[2].tcp.conn-39 srtt:vector ETV
attr interpolationmode sample-hold
vector 313 scenario.client[2].tcp.conn-39 rttvar:vector ETV
attr interpolationmode sample-hold
vector 314 scenario.client[2].tcp.conn-39 rto:vector ETV
attr interpolationmode sample-hold
vector 315 scenario.client[2].tcp.conn-39 cwnd:vector ETV
attr interpolationmode sample-hold
vector 316 scenario.client[2].tcp.conn-39 ssthresh:vector ETV
attr interpolationmode sample-hold
vector 317 scenario.client[2].tcp.conn-39 dupAcks:vector ETV
attr interpolationmode sample-hold
vector 318 scenario.client[3].tcp.conn-41 tcpRcvQueueBytes:vector ETV
attr interpolationmode sample-hold
vector 319 scenario.client[3].tcp.conn-41 rcvAdv:vector ETV
attr interpolationmode sample-hold
vector 320 scenario.client[3].tcp.conn-41 rcvWnd:vector ETV
attr interpolationmode sample-hold
vector 321 scenario.client[3].tcp.conn-41 sndAck:vector ETV
attr interpolationmode sample-hold
vector 322 scenario.client[3].ppp[3].ppp rcvdPkFromHl:vector(packetBytes) ETV
attr interpolationmode none
attr source packetReceivedFromUpper
attr title "packets received from higher layer, vector(packetBytes)"
vector 323 scenario.client[3].ppp[3].ppp.queue packetPushed:vector(packetBytes) ETV
attr interpolationmode none
attr title "packet pushed, vector(packetBytes)"
vector 324 scenario.client[3].ppp[3].ppp.queue queueLength:vector ETV
attr interpolationmode sample-hold
attr source "count(packetPushed) - count(packetPopped) - count(packetRemoved) - count(packetDropped)"
attr title "queue length, vector"
vector 325 scenario.client[3].ppp[3].ppp.queue packetPopped:vector(packetBytes) ETV
attr interpolationmode none
attr title "packet popped, vector(packetBytes)"
vector 326 scenario.client[3].ppp[3].ppp.queue queueingTime:vector ETV
attr interpolationmode none
attr source queueingTime(packetPopped)
attr title "queueing times, vector"
attr unit s
vector 327 scenario.client[3].ppp[3].ppp txPk:vector(packetBytes) ETV
attr interpolationmode none
attr source packetSentToLower
attr title "packets transmitted, vector(packetBytes)"
vector 328 scenario.client[4].ppp[3].ppp rxPkOk:vector(packetBytes) ETV
attr interpolationmode none
attr source rxPkOk
attr title "packets received OK, vector(packetBytes)"
vector 329 scenario.client[4].ppp[3].ppp passedUpPk:vector(packetBytes) ETV
attr interpolationmode none
attr source packetSentToUpper
attr title "packets passed to higher layer, vector(packetBytes)"
vector 330 scenario.client[4].tcp.conn-42 rcvAdv:vector ETV
attr interpolationmode sample-hold
vector 331 scenario.client[4].tcp.conn-42 sndWnd:vector ETV
attr interpolationmode sample-hold
vector 332 scenario.client[4].tcp.conn-42 tcpRcvQueueBytes:vector ETV
attr interpolationmode sample-hold
vector 333 scenario.client[4].tcp.conn-42 rcvWnd:vector ETV
attr interpolationmode sample-hold
vector 334 scenario.client[4].tcp.conn-42 sndAck:vector ETV
attr interpolationmode sample-hold
vector 335 scenario.client[4].ppp[3].ppp rcvdPkFromHl:vector(packetBytes) ETV
attr interpolationmode none
attr source packetReceivedFromUpper
attr title "packets received from higher layer, vector(packetBytes)"
vector 336 scenario.client[4].ppp[3].ppp.queue packetPushed:vector(packetBytes) ETV
attr interpolationmode none
attr title "packet pushed, vector(packetBytes)"
vector 337 scenario.client[4].ppp[3].ppp.queue queueLength:vector ETV
attr interpolationmode sample-hold
attr source "count(packetPushed) - count(packetPopped) - count(packetRemoved) - count(packetDropped)"
attr title "queue length, vector"
vector 338 scenario.client[4].ppp[3].ppp.queue packetPopped:vector(packetBytes) ETV
attr interpolationmode none
attr title "packet popped, vector(packetBytes)"
vector 339 scenario.client[4].ppp[3].ppp.queue queueingTime:vector ETV
attr interpolationmode none
attr source queueingTime(packetPopped)
attr title "queueing times, vector"
attr unit s
vector 340 scenario.client[4].ppp[3].ppp txPk:vector(packetBytes) ETV
attr interpolationmode none
attr source packetSentToLower
attr title "packets transmitted, vector(packetBytes)"
vector 341 scenario.client[3].ppp[3].ppp rxPkOk:vector(packetBytes) ETV
attr interpolationmode none
attr source rxPkOk
attr title "packets received OK, vector(packetBytes)"
vector 342 scenario.client[3].ppp[3].ppp passedUpPk:vector(packetBytes) ETV
attr interpolationmode none
attr source packetSentToUpper
attr title "packets passed to higher layer, vector(packetBytes)"
vector 343 scenario.client[3].tcp.conn-41 rcvSeq:vector ETV
attr interpolationmode sample-hold
vector 344 scenario.client[3].tcp.conn-41 rcvAck:vector ETV
attr interpolationmode sample-hold
vector 345 scenario.client[3].tcp.conn-41 sndWnd:vector ETV
attr interpolationmode sample-hold
vector 346 scenario.client[3].tcp.conn-41 unacked:vector ETV
attr interpolationmode sample-hold
vector 347 scenario.client[4].tcp.conn-42 rcvSeq:vector ETV
attr interpolationmode sample-hold
vector 348 scenario.client[4].tcp.conn-42 rcvAck:vector ETV
attr interpolationmode sample-hold
vector 349 scenario.client[4].tcp.conn-42 unacked:vector ETV
attr interpolationmode sample-hold
vector 350 scenario.client[4].tcp.conn-42 cwnd:vector ETV
attr interpolationmode sample-hold
vector 351 scenario.client[4].tcp.conn-42 ssthresh:vector ETV
attr interpolationmode sample-hold
vector 352 scenario.client[4].tcp.conn-42 dupAcks:vector ETV
attr interpolationmode sample-hold
vector 353 scenario.client[3].tcp.conn-41 rtt:vector ETV
attr interpolationmode sample-hold
vector 354 scenario.client[3].tcp.conn-41 srtt:vector ETV
attr interpolationmode sample-hold
vector 355 scenario.client[3].tcp.conn-41 rttvar:vector ETV
attr interpolationmode sample-hold
vector 356 scenario.client[3].tcp.conn-41 rto:vector ETV
attr interpolationmode sample-hold
vector 357 scenario.client[3].tcp.conn-41 cwnd:vector ETV
attr interpolationmode sample-hold
vector 358 scenario.client[3].tcp.conn-41 ssthresh:vector ETV
attr interpolationmode sample-hold
vector 359 scenario.client[3].tcp.conn-41 dupAcks:vector ETV
attr interpolationmode sample-hold
vector 360 scenario.client[1].tcp.conn-43 tcpRcvQueueBytes:vector ETV
attr interpolationmode sample-hold
vector 361 scenario.client[1].tcp.conn-43 rcvAdv:vector ETV
attr interpolationmode sample-hold
vector 362 scenario.client[1].tcp.conn-43 rcvWnd:vector ETV
attr interpolationmode sample-hold
vector 363 scenario.client[1].tcp.conn-43 sndAck:vector ETV
attr interpolationmode sample-hold
vector 364 scenario.client[1].ppp[2].ppp rcvdPkFromHl:vector(packetBytes) ETV
attr interpolationmode none
attr source packetReceivedFromUpper
attr title "packets received from higher layer, vector(packetBytes)"
vector 365 scenario.client[1].ppp[2].ppp.queue packetPushed:vector(packetBytes) ETV
attr interpolationmode none
attr title "packet pushed, vector(packetBytes)"
vector 366 scenario.client[1].ppp[2].ppp.queue queueLength:vector ETV
attr interpolationmode sample-hold
attr source "count(packetPushed) - count(packetPopped) - count(packetRemoved) - count(packetDropped)"
attr title "queue length, vector"
vector 367 scenario.client[1].ppp[2].ppp.queue packetPopped:vector(packetBytes) ETV
attr interpolationmode none
attr title "packet popped, vector(packetBytes)"
vector 368 scenario.client[1].ppp[2].ppp.queue queueingTime:vector ETV
attr interpolationmode none
attr source queueingTime(packetPopped)
attr title "queueing times, vector"
attr unit s
vector 369 scenario.client[1].ppp[2].ppp txPk:vector(packetBytes) ETV
attr interpolationmode none
attr source packetSentToLower
attr title "packets transmitted, vector(packetBytes)"
vector 370 scenario.client[3].ppp[1].ppp rxPkOk:vector(packetBytes) ETV
attr interpolationmode none
attr source rxPkOk
attr title "packets received OK, vector(packetBytes)"
vector 371 scenario.client[3].ppp[1].ppp passedUpPk:vector(packetBytes) ETV
attr interpolationmode none
attr source packetSentToUpper
attr title "packets passed to higher layer, vector(packetBytes)"
vector 372 scenario.client[3].tcp.conn-44 rcvAdv:vector ETV
attr interpolationmode sample-hold
vector 373 scenario.client[3].tcp.conn-44 sndWnd:vector ETV
attr interpolationmode sample-hold
vector 374 scenario.client[3].tcp.conn-44 tcpRcvQueueBytes:vector ETV
attr interpolationmode sample-hold
vector 375 scenario.client[3].tcp.conn-44 rcvWnd:vector ETV
attr interpolationmode sample-hold
vector 376 scenario.client[3].tcp.conn-44 sndAck:vector ETV
attr interpolationmode sample-hold
vector 377 scenario.client[3].ppp[1].ppp rcvdPkFromHl:vector(packetBytes) ETV
attr interpolationmode none
attr source packetReceivedFromUpper
attr title "packets received from higher layer, vector(packetBytes)"
vector 378 scenario.client[3].ppp[1].ppp.queue packetPushed:vector(packetBytes) ETV
attr interpolationmode none
attr title "packet pushed, vector(packetBytes)"
vector 379 scenario.client[3].ppp[1].ppp.queue queueLength:vector ETV
attr interpolationmode sample-hold
attr source "count(packetPushed) - count(packetPopped) - count(packetRemoved) - count(packetDropped)"
attr title "queue length, vector"
vector 380 scenario.client[3].ppp[1].ppp.queue packetPopped:vector(packetBytes) ETV
attr interpolationmode none
attr title "packet popped, vector(packetBytes)"
vector 381 scenario.client[3].ppp[1].ppp.queue queueingTime:vector ETV
attr interpolationmode none
attr source queueingTime(packetPopped)
attr title "queueing times, vector"
attr unit s
vector 382 scenario.client[3].ppp[1].ppp txPk:vector(packetBytes) ETV
attr interpolationmode none
attr source packetSentToLower
attr title "packets transmitted, vector(packetBytes)"
vector 383 scenario.client[1].ppp[2].ppp rxPkOk:vector(packetBytes) ETV
attr interpolationmode none
attr source rxPkOk
attr title "packets received OK, vector(packetBytes)"
vector 384 scenario.client[1].ppp[2].ppp passedUpPk:vector(packetBytes) ETV
attr interpolationmode none
attr source packetSentToUpper
attr title "packets passed to higher layer, vector(packetBytes)"
vector 385 scenario.client[1].tcp.conn-43 rcvSeq:vector ETV
attr interpolationmode sample-hold
vector 386 scenario.client[1].tcp.conn-43 rcvAck:vector ETV
attr interpolationmode sample-hold
vector 387 scenario.client[1].tcp.conn-43 sndWnd:vector ETV
attr interpolationmode sample-hold
vector 388 scenario.client[1].tcp.conn-43 unacked:vector ETV
attr interpolationmode sample-hold
vector 389 scenario.client[3].tcp.conn-44 rcvSeq:vector ETV
attr interpolationmode sample-hold
vector 390 scenario.client[3].tcp.conn-44 rcvAck:vector ETV
attr interpolationmode sample-hold
vector 391 scenario.client[3].tcp.conn-44 unacked:vector ETV
attr interpolationmode sample-hold
vector 392 scenario.client[3].tcp.conn-44 cwnd:vector ETV
attr interpolationmode sample-hold
vector 393 scenario.client[3].tcp.conn-44 ssthresh:vector ETV
attr interpolationmode sample-hold
vector 394 scenario.client[3].tcp.conn-44 dupAcks:vector ETV
attr interpolationmode sample-hold
vector 395 scenario.client[1].tcp.conn-43 rtt:vector ETV
attr interpolationmode sample-hold
vector 396 scenario.client[1].tcp.conn-43 srtt:vector ETV
attr interpolationmode sample-hold
vector 397 scenario.client[1].tcp.conn-43 rttvar:vector ETV
attr interpolationmode sample-hold
vector 398 scenario.client[1].tcp.conn-43 rto:vector ETV
attr interpolationmode sample-hold
vector 399 scenario.client[1].tcp.conn-43 cwnd:vector ETV
attr interpolationmode sample-hold
vector 400 scenario.client[1].tcp.conn-43 ssthresh:vector ETV
attr interpolationmode sample-hold
vector 401 scenario.client[1].tcp.conn-43 dupAcks:vector ETV
attr interpolationmode sample-hold
vector 402 scenario.client[1].tcp.conn-45 tcpRcvQueueBytes:vector ETV
attr interpolationmode sample-hold
vector 403 scenario.client[1].tcp.conn-45 rcvAdv:vector ETV
attr interpolationmode sample-hold
vector 404 scenario.client[1].tcp.conn-45 rcvWnd:vector ETV
attr interpolationmode sample-hold
vector 405 scenario.client[1].tcp.conn-45 sndAck:vector ETV
attr interpolationmode sample-hold
vector 406 scenario.client[1].ppp[3].ppp rcvdPkFromHl:vector(packetBytes) ETV
attr interpolationmode none
attr source packetReceivedFromUpper
attr title "packets received from higher layer, vector(packetBytes)"
vector 407 scenario.client[1].ppp[3].ppp.queue packetPushed:vector(packetBytes) ETV
attr interpolationmode none
attr title "packet pushed, vector(packetBytes)"
vector 408 scenario.client[1].ppp[3].ppp.queue queueLength:vector ETV
attr interpolationmode sample-hold
attr source "count(packetPushed) - count(packetPopped) - count(packetRemoved) - count(packetDropped)"
attr title "queue length, vector"
vector 409 scenario.client[1].ppp[3].ppp.queue packetPopped:vector(packetBytes) ETV
attr interpolationmode none
attr title "packet popped, vector(packetBytes)"
vector 410 scenario.client[1].ppp[3].ppp.queue queueingTime:vector ETV
attr interpolationmode none
attr source queueingTime(packetPopped)
attr title "queueing times, vector"
attr unit s
vector 411 scenario.client[1].ppp[3].ppp txPk:vector(packetBytes) ETV
attr interpolationmode none
attr source packetSentToLower
attr title "packets transmitted, vector(packetBytes)"
vector 412 scenario.client[2].tcp.conn-46 tcpRcvQueueBytes:vector ETV
attr interpolationmode sample-hold
vector 413 scenario.client[2].tcp.conn-46 rcvAdv:vector ETV
attr interpolationmode sample-hold
vector 414 scenario.client[2].tcp.conn-46 rcvWnd:vector ETV
attr interpolationmode sample-hold
vector 415 scenario.client[2].tcp.conn-46 sndAck:vector ETV
attr interpolationmode sample-hold
vector 416 scenario.client[2].ppp[3].ppp rcvdPkFromHl:vector(packetBytes) ETV
attr interpolationmode none
attr source packetReceivedFromUpper
attr title "packets received from higher layer, vector(packetBytes)"
vector 417 scenario.client[2].ppp[3].ppp.queue packetPushed:vector(packetBytes) ETV
attr interpolationmode none
attr title "packet pushed, vector(packetBytes)"
vector 418 scenario.client[2].ppp[3].ppp.queue queueLength:vector ETV
attr interpolationmode sample-hold
attr source "count(packetPushed) - count(packetPopped) - count(packetRemoved) - count(packetDropped)"
attr title "queue length, vector"
vector 419 scenario.client[2].ppp[3].ppp.queue packetPopped:vector(packetBytes) ETV
attr interpolationmode none
attr title "packet popped, vector(packetBytes)"
vector 420 scenario.client[2].ppp[3].ppp.queue queueingTime:vector ETV
attr interpolationmode none
attr source queueingTime(packetPopped)
attr title "queueing times, vector"
attr unit s
vector 421 scenario.client[2].ppp[3].ppp txPk:vector(packetBytes) ETV
attr interpolationmode none
attr source packetSentToLower
attr title "packets transmitted, vector(packetBytes)"
vector 422 scenario.client[4].ppp[1].ppp rxPkOk:vector(packetBytes) ETV
attr interpolationmode none
attr source rxPkOk
attr title "packets received OK, vector(packetBytes)"
vector 423 scenario.client[4].ppp[1].ppp passedUpPk:vector(packetBytes) ETV
attr interpolationmode none
attr source packetSentToUpper
attr title "packets passed to higher layer, vector(packetBytes)"
vector 424 scenario.client[4].tcp.conn-47 rcvAdv:vector ETV
attr interpolationmode sample-hold
vector 425 scenario.client[4].tcp.conn-47 sndWnd:vector ETV
attr interpolationmode sample-hold
vector 426 scenario.client[4].tcp.conn-47 tcpRcvQueueBytes:vector ETV
attr interpolationmode sample-hold
vector 427 scenario.client[4].tcp.conn-47 rcvWnd:vector ETV
attr interpolationmode sample-hold
vector 428 scenario.client[4].tcp.conn-47 sndAck:vector ETV
attr interpolationmode sample-hold
vector 429 scenario.client[4].ppp[1].ppp rcvdPkFromHl:vector(packetBytes) ETV
attr interpolationmode none
attr source packetReceivedFromUpper
attr title "packets received from higher layer, vector(packetBytes)"
vector 430 scenario.client[4].ppp[1].ppp.queue packetPushed:vector(packetBytes) ETV
attr interpolationmode none
attr title "packet pushed, vector(packetBytes)"
vector 431 scenario.client[4].ppp[1].ppp.queue queueLength:vector ETV
attr interpolationmode sample-hold
attr source "count(packetPushed) - count(packetPopped) - count(packetRemoved) - count(packetDropped)"
attr title "queue length, vector"
vector 432 scenario.client[4].ppp[1].ppp.queue packetPopped:vector(packetBytes) ETV
attr interpolationmode none
attr title "packet popped, vector(packetBytes)"
vector 433 scenario.client[4].ppp[1].ppp.queue queueingTime:vector ETV
attr interpolationmode none
attr source queueingTime(packetPopped)
attr title "queueing times, vector"
attr unit s
vector 434 scenario.client[4].ppp[1].ppp txPk:vector(packetBytes) ETV
attr interpolationmode none
attr source packetSentToLower
attr title "packets transmitted, vector(packetBytes)"
vector 435 scenario.client[4].ppp[2].ppp rxPkOk:vector(packetBytes) ETV
attr interpolationmode none
attr source rxPkOk
attr title "packets received OK, vector(packetBytes)"
vector 436 scenario.client[4].ppp[2].ppp passedUpPk:vector(packetBytes) ETV
attr interpolationmode none
attr source packetSentToUpper
attr title "packets passed to higher layer, vector(packetBytes)"
vector 437 scenario.client[4].tcp.conn-48 rcvAdv:vector ETV
attr interpolationmode sample-hold
vector 438 scenario.client[4].tcp.conn-48 sndWnd:vector ETV
attr interpolationmode sample-hold
vector 439 scenario.client[4].tcp.conn-48 tcpRcvQueueBytes:vector ETV
attr interpolationmode sample-hold
vector 440 scenario.client[4].tcp.conn-48 rcvWnd:vector ETV
attr interpolationmode sample-hold
vector 441 scenario.client[4].tcp.conn-48 sndAck:vector ETV
attr interpolationmode sample-hold
vector 442 scenario.client[4].ppp[2].ppp rcvdPkFromHl:vector(packetBytes) ETV
attr interpolationmode none
attr source packetReceivedFromUpper
attr title "packets received from higher layer, vector(packetBytes)"
vector 443 scenario.client[4].ppp[2].ppp.queue packetPushed:vector(packetBytes) ETV
attr interpolationmode none
attr title "packet pushed, vector(packetBytes)"
vector 444 scenario.client[4].ppp[2].ppp.queue queueLength:vector ETV
attr interpolationmode sample-hold
attr source "count(packetPushed) - count(packetPopped) - count(packetRemoved) - count(packetDropped)"
attr title "queue length, vector"
vector 445 scenario.client[4].ppp[2].ppp.queue packetPopped:vector(packetBytes) ETV
attr interpolationmode none
attr title "packet popped, vector(packetBytes)"
vector 446 scenario.client[4].ppp[2].ppp.queue queueingTime:vector ETV
attr interpolationmode none
attr source queueingTime(packetPopped)
attr title "queueing times, vector"
attr unit s
vector 447 scenario.client[4].ppp[2].ppp txPk:vector(packetBytes) ETV
attr interpolationmode none
attr source packetSentToLower
attr title "packets transmitted, vector(packetBytes)"
vector 448 scenario.client[1].ppp[3].ppp rxPkOk:vector(packetBytes) ETV
attr interpolationmode none
attr source rxPkOk
attr title "packets received OK, vector(packetBytes)"
vector 449 scenario.client[1].ppp[3].ppp passedUpPk:vector(packetBytes) ETV
attr interpolationmode none
attr source packetSentToUpper
attr title "packets passed to higher layer, vector(packetBytes)"
vector 450 scenario.client[1].tcp.conn-45 rcvSeq:vector ETV
attr interpolationmode sample-hold
vector 451 scenario.client[1].tcp.conn-45 rcvAck:vector ETV
attr interpolationmode sample-hold
vector 452 scenario.client[1].tcp.conn-45 sndWnd:vector ETV
attr interpolationmode sample-hold
vector 453 scenario.client[1].tcp.conn-45 unacked:vector ETV
attr interpolationmode sample-hold
vector 454 scenario.client[2].ppp[3].ppp rxPkOk:vector(packetBytes) ETV
attr interpolationmode none
attr source rxPkOk
attr title "packets received OK, vector(packetBytes)"
vector 455 scenario.client[2].ppp[3].ppp passedUpPk:vector(packetBytes) ETV
attr interpolationmode none
attr source packetSentToUpper
attr title "packets passed to higher layer, vector(packetBytes)"
vector 456 scenario.client[2].tcp.conn-46 rcvSeq:vector ETV
attr interpolationmode sample-hold
vector 457 scenario.client[2].tcp.conn-46 rcvAck:vector ETV
attr interpolationmode sample-hold
vector 458 scenario.client[2].tcp.conn-46 sndWnd:vector ETV
attr interpolationmode sample-hold
vector 459 scenario.client[2].tcp.conn-46 unacked:vector ETV
attr interpolationmode sample-hold
vector 460 scenario.client[4].tcp.conn-47 rcvSeq:vector ETV
attr interpolationmode sample-hold
vector 461 scenario.client[4].tcp.conn-47 rcvAck:vector ETV
attr interpolationmode sample-hold
vector 462 scenario.client[4].tcp.conn-47 unacked:vector ETV
attr interpolationmode sample-hold
vector 463 scenario.client[4].tcp.conn-47 cwnd:vector ETV
attr interpolationmode sample-hold
vector 464 scenario.client[4].tcp.conn-47 ssthresh:vector ETV
attr interpolationmode sample-hold
vector 465 scenario.client[4].tcp.conn-47 dupAcks:vector ETV
attr interpolationmode sample-hold
vector 466 scenario.client[4].tcp.conn-48 rcvSeq:vector ETV
attr interpolationmode sample-hold
vector 467 scenario.client[4].tcp.conn-48 rcvAck:vector ETV
attr interpolationmode sample-hold
vector 468 scenario.client[4].tcp.conn-48 unacked:vector ETV
attr interpolationmode sample-hold
vector 469 scenario.client[4].tcp.conn-48 cwnd:vector ETV
attr interpolationmode sample-hold
vector 470 scenario.client[4].tcp.conn-48 ssthresh:vector ETV
attr interpolationmode sample-hold
vector 471 scenario.client[4].tcp.conn-48 dupAcks:vector ETV
attr interpolationmode sample-hold
vector 472 scenario.client[1].tcp.conn-45 rtt:vector ETV
attr interpolationmode sample-hold
vector 473 scenario.client[1].tcp.conn-45 srtt:vector ETV
attr interpolationmode sample-hold
vector 474 scenario.client[1].tcp.conn-45 rttvar:vector ETV
attr interpolationmode sample-hold
vector 475 scenario.client[1].tcp.conn-45 rto:vector ETV
attr interpolationmode sample-hold
vector 476 scenario.client[1].tcp.conn-45 cwnd:vector ETV
attr interpolationmode sample-hold
vector 477 scenario.client[1].tcp.conn-45 ssthresh:vector ETV
attr interpolationmode sample-hold
vector 478 scenario.client[1].tcp.conn-45 dupAcks:vector ETV
attr interpolationmode sample-hold
vector 479 scenario.client[2].tcp.conn-46 rtt:vector ETV
attr interpolationmode sample-hold
vector 480 scenario.client[2].tcp.conn-46 srtt:vector ETV
attr interpolationmode sample-hold
vector 481 scenario.client[2].tcp.conn-46 rttvar:vector ETV
attr interpolationmode sample-hold
vector 482 scenario.client[2].tcp.conn-46 rto:vector ETV
attr interpolationmode sample-hold
vector 483 scenario.client[2].tcp.conn-46 cwnd:vector ETV
attr interpolationmode sample-hold
vector 484 scenario.client[2].tcp.conn-46 ssthresh:vector ETV
attr interpolationmode sample-hold
vector 485 scenario.client[2].tcp.conn-46 dupAcks:vector ETV
attr interpolationmode sample-hold
vector 486 scenario.client[2].tcp.conn-49 tcpRcvQueueBytes:vector ETV
attr interpolationmode sample-hold
vector 487 scenario.client[2].tcp.conn-49 rcvAdv:vector ETV
attr interpolationmode sample-hold
vector 488 scenario.client[2].tcp.conn-49 rcvWnd:vector ETV
attr interpolationmode sample-hold
vector 489 scenario.client[2].tcp.conn-49 sndAck:vector ETV
attr interpolationmode sample-hold
vector 490 scenario.client[2].ppp[1].ppp rcvdPkFromHl:vector(packetBytes) ETV
attr interpolationmode none
attr source packetReceivedFromUpper
attr title "packets received from higher layer, vector(packetBytes)"
vector 491 scenario.client[2].ppp[1].ppp.queue packetPushed:vector(packetBytes) ETV
attr interpolationmode none
attr title "packet pushed, vector(packetBytes)"
vector 492 scenario.client[2].ppp[1].ppp.queue queueLength:vector ETV
attr interpolationmode sample-hold
attr source "count(packetPushed) - count(packetPopped) - count(packetRemoved) - count(packetDropped)"
attr title "queue length, vector"
vector 493 scenario.client[2].ppp[1].ppp.queue packetPopped:vector(packetBytes) ETV
attr interpolationmode none
attr title "packet popped, vector(packetBytes)"
vector 494 scenario.client[2].ppp[1].ppp.queue queueingTime:vector ETV
attr interpolationmode none
attr source queueingTime(packetPopped)
attr title "queueing times, vector"
attr unit s
vector 495 scenario.client[2].ppp[1].ppp txPk:vector(packetBytes) ETV
attr interpolationmode none
attr source packetSentToLower
attr title "packets transmitted, vector(packetBytes)"
vector 496 scenario.client[1].ppp[1].ppp rxPkOk:vector(packetBytes) ETV
attr interpolationmode none
attr source rxPkOk
attr title "packets received OK, vector(packetBytes)"
vector 497 scenario.client[1].ppp[1].ppp passedUpPk:vector(packetBytes) ETV
attr interpolationmode none
attr source packetSentToUpper
attr title "packets passed to higher layer, vector(packetBytes)"
vector 498 scenario.client[1].tcp.conn-50 rcvAdv:vector ETV
attr interpolationmode sample-hold
vector 499 scenario.client[1].tcp.conn-50 sndWnd:vector ETV
attr interpolationmode sample-hold
vector 500 scenario.client[1].tcp.conn-50 tcpRcvQueueBytes:vector ETV
attr interpolationmode sample-hold
vector 501 scenario.client[1].tcp.conn-50 rcvWnd:vector ETV
attr interpolationmode sample-hold
vector 502 scenario.client[1].tcp.conn-50 sndAck:vector ETV
attr interpolationmode sample-hold
vector 503 scenario.client[1].ppp[1].ppp rcvdPkFromHl:vector(packetBytes) ETV
attr interpolationmode none
attr source packetReceivedFromUpper
attr title "packets received from higher layer, vector(packetBytes)"
vector 504 scenario.client[1].ppp[1].ppp.queue packetPushed:vector(packetBytes) ETV
attr interpolationmode none
attr title "packet pushed, vector(packetBytes)"
vector 505 scenario.client[1].ppp[1].ppp.queue queueLength:vector ETV
attr interpolationmode sample-hold
attr source "count(packetPushed) - count(packetPopped) - count(packetRemoved) - count(packetDropped)"
attr title "queue length, vector"
vector 506 scenario.client[1].ppp[1].ppp.queue packetPopped:vector(packetBytes) ETV
attr interpolationmode none
attr title "packet popped, vector(packetBytes)"
vector 507 scenario.client[1].ppp[1].ppp.queue queueingTime:vector ETV
attr interpolationmode none
attr source queueingTime(packetPopped)
attr title "queueing times, vector"
attr unit s
vector 508 scenario.client[1].ppp[1].ppp txPk:vector(packetBytes) ETV
attr interpolationmode none
attr source packetSentToLower
attr title "packets transmitted, vector(packetBytes)"
vector 509 scenario.client[2].ppp[1].ppp rxPkOk:vector(packetBytes) ETV
attr interpolationmode none
attr source rxPkOk
attr title "packets received OK, vector(packetBytes)"
vector 510 scenario.client[2].ppp[1].ppp passedUpPk:vector(packetBytes) ETV
attr interpolationmode none
attr source packetSentToUpper
attr title "packets passed to higher layer, vector(packetBytes)"
vector 511 scenario.client[2].tcp.conn-49 rcvSeq:vector ETV
attr interpolationmode sample-hold
vector 512 scenario.client[2].tcp.conn-49 rcvAck:vector ETV
attr interpolationmode sample-hold
vector 513 scenario.client[2].tcp.conn-49 sndWnd:vector ETV
attr interpolationmode sample-hold
vector 514 scenario.client[2].tcp.conn-49 unacked:vector ETV
attr interpolationmode sample-hold
vector 515 scenario.client[1].tcp.conn-50 rcvSeq:vector ETV
attr interpolationmode sample-hold
vector 516 scenario.client[1].tcp.conn-50 rcvAck:vector ETV
attr interpolationmode sample-hold
vector 517 scenario.client[1].tcp.conn-50 unacked:vector ETV
attr interpolationmode sample-hold
vector 518 scenario.client[1].tcp.conn-50 cwnd:vector ETV
attr interpolationmode sample-hold
vector 519 scenario.client[1].tcp.conn-50 ssthresh:vector ETV
attr interpolationmode sample-hold
vector 520 scenario.client[1].tcp.conn-50 dupAcks:vector ETV
attr interpolationmode sample-hold
vector 521 scenario.client[2].tcp.conn-49 rtt:vector ETV
attr interpolationmode sample-hold
vector 522 scenario.client[2].tcp.conn-49 srtt:vector ETV
attr interpolationmode sample-hold
vector 523 scenario.client[2].tcp.conn-49 rttvar:vector ETV
attr interpolationmode sample-hold
vector 524 scenario.client[2].tcp.conn-49 rto:vector ETV
attr interpolationmode sample-hold
vector 525 scenario.client[2].tcp.conn-49 cwnd:vector ETV
attr interpolationmode sample-hold
vector 526 scenario.client[2].tcp.conn-49 ssthresh:vector ETV
attr interpolationmode sample-hold
vector 527 scenario.client[2].tcp.conn-49 dupAcks:vector ETV
attr interpolationmode sample-hold
vector 528 scenario.client[3].tcp.conn-51 tcpRcvQueueBytes:vector ETV
attr interpolationmode sample-hold
vector 529 scenario.client[3].tcp.conn-51 rcvAdv:vector ETV
attr interpolationmode sample-hold
vector 530 scenario.client[3].tcp.conn-51 rcvWnd:vector ETV
attr interpolationmode sample-hold
vector 531 scenario.client[3].tcp.conn-51 sndAck:vector ETV
attr interpolationmode sample-hold
vector 532 scenario.client[2].tcp.conn-52 rcvAdv:vector ETV
attr interpolationmode sample-hold
vector 533 scenario.client[2].tcp.conn-52 sndWnd:vector ETV
attr interpolationmode sample-hold
vector 534 scenario.client[2].tcp.conn-52 tcpRcvQueueBytes:vector ETV
attr interpolationmode sample-hold
vector 535 scenario.client[2].tcp.conn-52 rcvWnd:vector ETV
attr interpolationmode sample-hold
vector 536 scenario.client[2].tcp.conn-52 sndAck:vector ETV
attr interpolationmode sample-hold
vector 537 scenario.client[3].tcp.conn-51 rcvSeq:vector ETV
attr interpolationmode sample-hold
vector 538 scenario.client[3].tcp.conn-51 rcvAck:vector ETV
attr interpolationmode sample-hold
vector 539 scenario.client[3].tcp.conn-51 sndWnd:vector ETV
attr interpolationmode sample-hold
vector 540 scenario.client[3].tcp.conn-51 unacked:vector ETV
attr interpolationmode sample-hold
vector 541 scenario.client[2].tcp.conn-52 rcvSeq:vector ETV
attr interpolationmode sample-hold
vector 542 scenario.client[2].tcp.conn-52 rcvAck:vector ETV
attr interpolationmode sample-hold
vector 543 scenario.client[2].tcp.conn-52 unacked:vector ETV
attr interpolationmode sample-hold
vector 544 scenario.client[2].tcp.conn-52 cwnd:vector ETV
attr interpolationmode sample-hold
vector 545 scenario.client[2].tcp.conn-52 ssthresh:vector ETV
attr interpolationmode sample-hold
vector 546 scenario.client[2].tcp.conn-52 dupAcks:vector ETV
attr interpolationmode sample-hold
vector 547 scenario.client[3].tcp.conn-51 rtt:vector ETV
attr interpolationmode sample-hold
vector 548 scenario.client[3].tcp.conn-51 srtt:vector ETV
attr interpolationmode sample-hold
vector 549 scenario.client[3].tcp.conn-51 rttvar:vector ETV
attr interpolationmode sample-hold
vector 550 scenario.client[3].tcp.conn-51 rto:vector ETV
attr interpolationmode sample-hold
vector 551 scenario.client[3].tcp.conn-51 cwnd:vector ETV
attr interpolationmode sample-hold
vector 552 scenario.client[3].tcp.conn-51 ssthresh:vector ETV
attr interpolationmode sample-hold
vector 553 scenario.client[3].tcp.conn-51 dupAcks:vector ETV
attr interpolationmode sample-hold
vector 554 scenario.client[3].tcp.conn-53 tcpRcvQueueBytes:vector ETV
attr interpolationmode sample-hold
vector 555 scenario.client[3].tcp.conn-53 rcvAdv:vector ETV
attr interpolationmode sample-hold
vector 556 scenario.client[3].tcp.conn-53 rcvWnd:vector ETV
attr interpolationmode sample-hold
vector 557 scenario.client[3].tcp.conn-53 sndAck:vector ETV
attr interpolationmode sample-hold
vector 558 scenario.client[1].tcp.conn-54 rcvAdv:vector ETV
attr interpolationmode sample-hold
vector 559 scenario.client[1].tcp.conn-54 sndWnd:vector ETV
attr interpolationmode sample-hold
vector 560 scenario.client[1].tcp.conn-54 tcpRcvQueueBytes:vector ETV
attr interpolationmode sample-hold
vector 561 scenario.client[1].tcp.conn-54 rcvWnd:vector ETV
attr interpolationmode sample-hold
vector 562 scenario.client[1].tcp.conn-54 sndAck:vector ETV
attr interpolationmode sample-hold
vector 563 scenario.client[3].tcp.conn-53 rcvSeq:vector ETV
attr interpolationmode sample-hold
vector 564 scenario.client[3].tcp.conn-53 rcvAck:vector ETV
attr interpolationmode sample-hold
vector 565 scenario.client[3].tcp.conn-53 sndWnd:vector ETV
attr interpolationmode sample-hold
vector 566 scenario.client[3].tcp.conn-53 unacked:vector ETV
attr interpolationmode sample-hold
vector 567 scenario.client[1].tcp.conn-54 rcvSeq:vector ETV
attr interpolationmode sample-hold
vector 568 scenario.client[1].tcp.conn-54 rcvAck:vector ETV
attr interpolationmode sample-hold
vector 569 scenario.client[1].tcp.conn-54 unacked:vector ETV
attr interpolationmode sample-hold
vector 570 scenario.client[1].tcp.conn-54 cwnd:vector ETV
attr interpolationmode sample-hold
vector 571 scenario.client[1].tcp.conn-54 ssthresh:vector ETV
attr interpolationmode sample-hold
vector 572 scenario.client[1].tcp.conn-54 dupAcks:vector ETV
attr interpolationmode sample-hold
vector 573 scenario.client[3].tcp.conn-53 rtt:vector ETV
attr interpolationmode sample-hold
vector 574 scenario.client[3].tcp.conn-53 srtt:vector ETV
attr interpolationmode sample-hold
vector 575 scenario.client[3].tcp.conn-53 rttvar:vector ETV
attr interpolationmode sample-hold
vector 576 scenario.client[3].tcp.conn-53 rto:vector ETV
attr interpolationmode sample-hold
vector 577 scenario.client[3].tcp.conn-53 cwnd:vector ETV
attr interpolationmode sample-hold
vector 578 scenario.client[3].tcp.conn-53 ssthresh:vector ETV
attr interpolationmode sample-hold
vector 579 scenario.client[3].tcp.conn-53 dupAcks:vector ETV
attr interpolationmode sample-hold
vector 580 scenario.client[1].tcp.conn-55 tcpRcvQueueBytes:vector ETV
attr interpolationmode sample-hold
vector 581 scenario.client[1].tcp.conn-55 rcvAdv:vector ETV
attr interpolationmode sample-hold
vector 582 scenario.client[1].tcp.conn-55 rcvWnd:vector ETV
attr interpolationmode sample-hold
vector 583 scenario.client[1].tcp.conn-55 sndAck:vector ETV
attr interpolationmode sample-hold
vector 584 scenario.client[2].tcp.conn-56 rcvAdv:vector ETV
attr interpolationmode sample-hold
vector 585 scenario.client[2].tcp.conn-56 sndWnd:vector ETV
attr interpolationmode sample-hold
vector 586 scenario.client[2].tcp.conn-56 tcpRcvQueueBytes:vector ETV
attr interpolationmode sample-hold
vector 587 scenario.client[2].tcp.conn-56 rcvWnd:vector ETV
attr interpolationmode sample-hold
vector 588 scenario.client[2].tcp.conn-56 sndAck:vector ETV
attr interpolationmode sample-hold
vector 589 scenario.client[1].tcp.conn-55 rcvSeq:vector ETV
attr interpolationmode sample-hold
vector 590 scenario.client[1].tcp.conn-55 rcvAck:vector ETV
attr interpolationmode sample-hold
vector 591 scenario.client[1].tcp.conn-55 sndWnd:vector ETV
attr interpolationmode sample-hold
vector 592 scenario.client[1].tcp.conn-55 unacked:vector ETV
attr interpolationmode sample-hold
vector 593 scenario.client[2].tcp.conn-56 rcvSeq:vector ETV
attr interpolationmode sample-hold
vector 594 scenario.client[2].tcp.conn-56 rcvAck:vector ETV
attr interpolationmode sample-hold
vector 595 scenario.client[2].tcp.conn-56 unacked:vector ETV
attr interpolationmode sample-hold
vector 596 scenario.client[2].tcp.conn-56 cwnd:vector ETV
attr interpolationmode sample-hold
vector 597 scenario.client[2].tcp.conn-56 ssthresh:vector ETV
attr interpolationmode sample-hold
vector 598 scenario.client[2].tcp.conn-56 dupAcks:vector ETV
attr interpolationmode sample-hold
vector 599 scenario.client[1].tcp.conn-55 rtt:vector ETV
attr interpolationmode sample-hold
vector 600 scenario.client[1].tcp.conn-55 srtt:vector ETV
attr interpolationmode sample-hold
vector 601 scenario.client[1].tcp.conn-55 rttvar:vector ETV
attr interpolationmode sample-hold
vector 602 scenario.client[1].tcp.conn-55 rto:vector ETV
attr interpolationmode sample-hold
vector 603 scenario.client[1].tcp.conn-55 cwnd:vector ETV
attr interpolationmode sample-hold
vector 604 scenario.client[1].tcp.conn-55 ssthresh:vector ETV
attr interpolationmode sample-hold
vector 605 scenario.client[1].tcp.conn-55 dupAcks:vector ETV
attr interpolationmode sample-hold
0	76854 481 0 895 0 4.283243089205 21 0 1 10 10
1	77335 485 0 843 0 3.645629944273 21 0 1 10 10
2	77820 485 0 910 0 4.290872716574 21 0 1 10 10
3	78305 197 0 753 0 3.200425928037 9 0 1 4 4
4	78502 481 0 888 0 4.282367089205 21 0 1 10 10
5	78983 295 0 880 0 3.725533773248 13 0 1 6 6
6	79278 297 0 715 0 3.073292188727 13 0 1 6 6
7	79575 105 0 438 0 2.400277572802 5 0 1 2 2
8	79680 485 0 850 0 3.646505944273 21 0 1 10 10
9	80165 295 0 873 0 3.724657773248 13 0 1 6 6
10	80460 310 0 858 0 3.684006081851 13 0 1 6 6
11	80770 106 0 439 0 2.40039964684 5 0 1 2 2
12	80876 506 0 903 0 4.289996716574 21 0 1 10 10
13	81382 310 0 708 0 3.072416188727 13 0 1 6 6
14	81692 310 0 865 0 3.684882081851 13 0 1 6 6
15	82002 110 0 316 0 2.256946504959 5 0 1 2 2
16	82112 206 0 760 0 3.201301928037 9 0 1 4 4
17	82318 110 0 458 0 2.401153572802 5 0 1 2 2
18	82428 106 0 459 0 2.40127564684 5 0 1 2 2
19	82534 110 0 333 0 2.257822504959 5 0 1 2 2
20	82644 122 8 795 0.888177129429 3.457190888882 5 0 0 0 0
21	82766 174 8 795 0.888177129429 3.457190888882 6 7504 229776 1156384 264041360896
22	82940 137 8 795 0.888177129429 3.457190888882 5 7504 7504 37520 281550080
23	83077 142 8 795 0.888177129429 3.457190888882 5 0 222272 889088 197619367936
24	83219 256 11 894 0.888177129429 4.282867089205 10 40 44 412 16996
25	83475 256 11 894 0.888177129429 4.282867089205 10 40 44 412 16996
26	83731 492 11 894 0.888177129429 4.282867089205 20 0 1 10 10
27	84223 256 11 894 0.888177129429 4.282867089205 10 40 44 412 16996
28	84479 246 11 894 0.888177129429 4.282867089205 10 0 0 0 0
29	84725 256 11 894 0.888177129429 4.282867089205 10 47 51 482 23254
30	84981 257 13 896 0.889085129429 4.283743089205 10 47 51 482 23254
31	85238 257 13 896 0.889085129429 4.283743089205 10 40 44 412 16996
32	85495 89 15 553 0.889085129429 2.749871247413 3 222044 687240 1568505 956174682377
33	85584 74 15 553 0.889085129429 2.749871247413 3 0 0 0 0
34	85658 177 15 801 0.889085129429 3.458074888882 6 229549 229553 1377303 316160592317
35	85835 54 15 28 0.889085129429 0.890877129429 2 7504 7504 15008 112620032
36	85889 222 15 801 0.889085129429 3.458074888882 9 0 1 1 1
37	86111 138 15 801 0.889085129429 3.458074888882 5 7503 7504 37519 281535073
38	86249 148 15 801 0.889085129429 3.458074888882 5 222045 222049 1110235 246524351055
39	86397 256 17 887 0.889085129429 4.281983089205 10 40 44 412 16996
40	86653 256 17 887 0.889085129429 4.281983089205 10 40 44 412 16996
41	86909 492 17 887 0.889085129429 4.281983089205 20 0 1 10 10
42	87401 256 17 887 0.889085129429 4.281983089205 10 40 44 412 16996
43	87657 246 17 887 0.889085129429 4.281983089205 10 0 0 0 0
44	87903 256 17 887 0.889085129429 4.281983089205 10 47 51 482 23254
45	88159 256 19 889 0.889993129429 4.282867089205 10 47 51 482 23254
46	88415 256 19 889 0.889993129429 4.282867089205 10 40 44 412 16996
47	88671 148 21 808 0.889993129429 3.458950888882 5 222271 222272 1111359 247023765377
48	88819 148 21 808 0.889993129429 3.458950888882 5 222045 222049 1110235 246524351055
49	88967 138 21 808 0.889993129429 3.458950888882 5 7503 7504 37519 281535073
50	89105 198 21 808 0.889993129429 3.458950888882 8 0 1 4 4
51	89303 119 28 801 0.890877129429 3.458074888882 4 222045 222048 888186 197218592654
52	89422 119 28 801 0.890877129429 3.458074888882 4 222272 222272 889088 197619367936
53	89541 24 28 28 0.890877129429 0.890877129429 1 0 0 0 0
54	89565 27 28 28 0.890877129429 0.890877129429 1 1072 1072 1072 1149184
55	89592 33 28 28 0.890877129429 0.890877129429 1 4294967295 4294967295 4294967295 1.844674406512e+019
56	89625 99 28 801 0.890877129429 3.458074888882 4 0 0 0 0
57	89724 123 38 808 0.891753129429 3.458950888882 4 0.00176 0.00176 0.00704 1.23904e-005
58	89847 137 38 808 0.891753129429 3.458950888882 4 0.00022 0.000728320313 0.001941757813 1.0864951072347e-006
59	89984 139 38 808 0.891753129429 3.458950888882 4 0.440225761719 0.65647 2.174246230469 1.2078764535965
60	90123 136 38 808 0.891753129429 3.458950888882 4 1.761631367189 2.6261 8.698926679689 19.333978371406
61	90259 111 38 808 0.891753129429 3.458950888882 4 1072 2680 7504 15513984
62	90370 135 38 808 0.891753129429 3.458950888882 4 4294967295 4294967295 17179869180 7.3786976260478e+019
63	90505 99 38 808 0.891753129429 3.458950888882 4 0 0 0 0
64	90604 98 40 750 0.894769127476 3.200041928037 4 0 0 0 0
65	90702 145 40 750 0.894769127476 3.200041928037 5 7504 231424 933200 214284581120
66	90847 110 40 750 0.894769127476 3.200041928037 4 7504 7504 30016 225240064
67	90957 113 40 750 0.894769127476 3.200041928037 4 0 223920 671760 150420499200
68	91070 102 43 752 0.894769127476 3.200041928037 4 41 44 167 6979
[...]
352	128937 26 325 325 2.257446504959 2.257446504959 1 0 0 0 0
353	128963 32 339 339 2.258322504959 2.258322504959 1 0.00176 0.00176 0.00176 3.0976e-006
354	128995 32 339 339 2.258322504959 2.258322504959 1 0.00022 0.00022 0.00022 4.84e-008
355	129027 32 339 339 2.258322504959 2.258322504959 1 0.65647 0.65647 0.65647 0.4309528609
356	129059 31 339 339 2.258322504959 2.258322504959 1 2.6261 2.6261 2.6261 6.89640121
357	129090 29 339 339 2.258322504959 2.258322504959 1 1072 1072 1072 1149184
358	129119 35 339 339 2.258322504959 2.258322504959 1 4294967295 4294967295 4294967295 1.844674406512e+019
359	129154 26 339 339 2.258322504959 2.258322504959 1 0 0 0 0
360	129180 78 341 623 2.273348424574 2.921590308175 3 0 0 0 0
361	129258 122 341 623 2.273348424574 2.921590308175 4 7504 576069 1735711 995622788299
362	129380 87 341 623 2.273348424574 2.921590308175 3 7504 7504 22512 168930048
363	129467 88 341 623 2.273348424574 2.921590308175 3 0 568565 1137130 646532318450
364	129555 162 344 714 2.273348424574 3.072916188727 6 40 44 250 10434
365	129717 162 344 714 2.273348424574 3.072916188727 6 40 44 250 10434
366	129879 312 344 714 2.273348424574 3.072916188727 12 0 1 6 6
367	130191 162 344 714 2.273348424574 3.072916188727 6 40 44 250 10434
368	130353 156 344 714 2.273348424574 3.072916188727 6 0 0 0 0
369	130509 162 344 714 2.273348424574 3.072916188727 6 47 51 292 14228
370	130671 162 346 716 2.274256424574 3.073792188727 6 47 51 292 14228
371	130833 162 346 716 2.274256424574 3.073792188727 6 40 44 250 10434
372	130995 124 348 629 2.274256424574 2.922474308175 4 575842 575844 2303370 1326378339228
373	131119 58 348 361 2.274256424574 2.276048424574 2 7504 7504 15008 112620032
374	131177 130 348 629 2.274256424574 2.922474308175 5 0 1 1 1
375	131307 87 348 629 2.274256424574 2.922474308175 3 7503 7504 22511 168915041
376	131394 93 348 629 2.274256424574 2.922474308175 3 568338 568340 1705017 969027656765
377	131487 162 350 707 2.274256424574 3.072032188727 6 40 44 250 10434
378	131649 162 350 707 2.274256424574 3.072032188727 6 40 44 250 10434
379	131811 312 350 707 2.274256424574 3.072032188727 12 0 1 6 6
380	132123 162 350 707 2.274256424574 3.072032188727 6 40 44 250 10434
381	132285 156 350 707 2.274256424574 3.072032188727 6 0 0 0 0
382	132441 162 350 707 2.274256424574 3.072032188727 6 47 51 292 14228
383	132603 162 352 709 2.275164424574 3.072916188727 6 47 51 292 14228
384	132765 162 352 709 2.275164424574 3.072916188727 6 40 44 250 10434
385	132927 93 354 636 2.275164424574 2.923350308175 3 568564 568565 1705694 969797340546
386	133020 93 354 636 2.275164424574 2.923350308175 3 568338 568340 1705017 969027656765
387	133113 87 354 636 2.275164424574 2.923350308175 3 7503 7504 22511 168915041
388	133200 104 354 636 2.275164424574 2.923350308175 4 0 1 2 2
389	133304 62 361 629 2.276048424574 2.922474308175 2 568338 568339 1136677 646017301165
390	133366 62 361 629 2.276048424574 2.922474308175 2 568565 568565 1137130 646532318450
391	133428 26 361 361 2.276048424574 2.276048424574 1 0 0 0 0
392	133454 29 361 361 2.276048424574 2.276048424574 1 1072 1072 1072 1149184
393	133483 35 361 361 2.276048424574 2.276048424574 1 4294967295 4294967295 4294967295 1.844674406512e+019
394	133518 52 361 629 2.276048424574 2.922474308175 2 0 0 0 0
395	133570 64 371 636 2.276924424574 2.923350308175 2 0.00176 0.00176 0.00352 6.1952e-006
396	133634 66 371 636 2.276924424574 2.923350308175 2 0.00022 0.0004125 0.0006325 2.1855625e-007
397	133700 67 371 636 2.276924424574 2.923350308175 2 0.57460375 0.65647 1.23107375 0.76112233041406
398	133767 65 371 636 2.276924424574 2.923350308175 2 2.2988275 2.6261 4.9249275 12.181009084756
399	133832 58 371 636 2.276924424574 2.923350308175 2 1072 1608 2680 3734848
400	133890 70 371 636 2.276924424574 2.923350308175 2 4294967295 4294967295 8589934590 3.6893488130239e+019
401	133960 52 371 636 2.276924424574 2.923350308175 2 0 0 0 0
402	134012 52 403 428 2.398077572802 2.399893572802 2 0 0 0 0
403	134064 91 403 428 2.398077572802 2.399893572802 3 7504 607251 1222006 737563864018
404	134155 58 403 428 2.398077572802 2.399893572802 2 7504 7504 15008 112620032
405	134213 57 403 428 2.398077572802 2.399893572802 2 0 599747 599747 359696464009
406	134270 54 406 431 2.398077572802 2.399893572802 2 41 44 85 3617
407	134324 54 406 431 2.398077572802 2.399893572802 2 41 44 85 3617
408	134378 104 406 431 2.398077572802 2.399893572802 4 0 1 2 2
409	134482 54 406 431 2.398077572802 2.399893572802 2 41 44 85 3617
410	134536 52 406 431 2.398077572802 2.399893572802 2 0 0 0 0
411	134588 54 406 431 2.398077572802 2.399893572802 2 48 51 99 4905
412	134642 50 408 434 2.39819964684 2.40001564684 2 0 0 0 0
413	134692 88 408 434 2.39819964684 2.40001564684 3 7504 607281 1222066 737636735938
414	134780 56 408 434 2.39819964684 2.40001564684 2 7504 7504 15008 112620032
415	134836 55 408 434 2.39819964684 2.40001564684 2 0 599777 599777 359732449729
416	134891 52 411 437 2.39819964684 2.40001564684 2 41 44 85 3617
417	134943 52 411 437 2.39819964684 2.40001564684 2 41 44 85 3617
418	134995 100 411 437 2.39819964684 2.40001564684 4 0 1 2 2
419	135095 52 411 437 2.39819964684 2.40001564684 2 41 44 85 3617
420	135147 50 411 437 2.39819964684 2.40001564684 2 0 0 0 0
421	135197 52 411 437 2.39819964684 2.40001564684 2 48 51 99 4905
422	135249 54 414 440 2.398985572802 2.400777572802 2 48 51 99 4905
423	135303 54 414 440 2.398985572802 2.400777572802 2 41 44 85 3617
424	135357 93 416 442 2.398985572802 2.400777572802 3 607024 607024 1821072 1105434409728
425	135450 58 416 442 2.398985572802 2.400777572802 2 7504 7504 15008 112620032
426	135508 78 416 442 2.398985572802 2.400777572802 3 0 1 1 1
427	135586 58 416 442 2.398985572802 2.400777572802 2 7503 7504 15007 112605025
428	135644 62 416 442 2.398985572802 2.400777572802 2 599520 599521 1199041 718849659841
429	135706 54 418 446 2.398985572802 2.400777572802 2 40 44 84 3536
430	135760 54 418 446 2.398985572802 2.400777572802 2 40 44 84 3536
431	135814 104 418 446 2.398985572802 2.400777572802 4 0 1 2 2
432	135918 54 418 446 2.398985572802 2.400777572802 2 40 44 84 3536
433	135972 52 418 446 2.398985572802 2.400777572802 2 0 0 0 0
434	136024 54 418 446 2.398985572802 2.400777572802 2 47 51 98 4810
435	136078 52 419 449 2.39910764684 2.40089964684 2 48 51 99 4905
436	136130 52 419 449 2.39910764684 2.40089964684 2 41 44 85 3617
437	136182 90 421 451 2.39910764684 2.40089964684 3 607054 607054 1821162 1105543676748
438	136272 56 421 451 2.39910764684 2.40089964684 2 7504 7504 15008 112620032
439	136328 75 421 451 2.39910764684 2.40089964684 3 0 1 1 1
440	136403 56 421 451 2.39910764684 2.40089964684 2 7503 7504 15007 112605025
441	136459 60 421 451 2.39910764684 2.40089964684 2 599550 599551 1199101 718921604101
442	136519 52 423 455 2.39910764684 2.40089964684 2 40 44 84 3536
443	136571 52 423 455 2.39910764684 2.40089964684 2 40 44 84 3536
444	136623 100 423 455 2.39910764684 2.40089964684 4 0 1 2 2
445	136723 52 423 455 2.39910764684 2.40089964684 2 40 44 84 3536
446	136775 50 423 455 2.39910764684 2.40089964684 2 0 0 0 0
447	136825 52 423 455 2.39910764684 2.40089964684 2 47 51 98 4810
448	136877 54 426 460 2.399893572802 2.401653572802 2 47 51 98 4810
449	136931 54 426 460 2.399893572802 2.401653572802 2 40 44 84 3536
450	136985 62 428 462 2.399893572802 2.401653572802 2 599746 599747 1199493 719391728525
451	137047 62 428 462 2.399893572802 2.401653572802 2 599520 599521 1199041 718849659841
452	137109 58 428 462 2.399893572802 2.401653572802 2 7503 7504 15007 112605025
453	137167 52 428 462 2.399893572802 2.401653572802 2 0 1 1 1
454	137219 52 432 463 2.40001564684 2.40177564684 2 47 51 98 4810
455	137271 52 432 463 2.40001564684 2.40177564684 2 40 44 84 3536
456	137323 60 434 465 2.40001564684 2.40177564684 2 599776 599777 1199553 719463699905
457	137383 60 434 465 2.40001564684 2.40177564684 2 599550 599551 1199101 718921604101
458	137443 56 434 465 2.40001564684 2.40177564684 2 7503 7504 15007 112605025
459	137499 50 434 465 2.40001564684 2.40177564684 2 0 1 1 1
460	137549 31 442 442 2.400777572802 2.400777572802 1 599520 599520 599520 359424230400
461	137580 31 442 442 2.400777572802 2.400777572802 1 599747 599747 599747 359696464009
462	137611 26 442 442 2.400777572802 2.400777572802 1 0 0 0 0
463	137637 29 442 442 2.400777572802 2.400777572802 1 1072 1072 1072 1149184
464	137666 35 442 442 2.400777572802 2.400777572802 1 4294967295 4294967295 4294967295 1.844674406512e+019
465	137701 26 442 442 2.400777572802 2.400777572802 1 0 0 0 0
466	137727 30 451 451 2.40089964684 2.40089964684 1 599550 599550 599550 359460202500
467	137757 30 451 451 2.40089964684 2.40089964684 1 599777 599777 599777 359732449729
468	137787 25 451 451 2.40089964684 2.40089964684 1 0 0 0 0
469	137812 28 451 451 2.40089964684 2.40089964684 1 1072 1072 1072 1149184
470	137840 34 451 451 2.40089964684 2.40089964684 1 4294967295 4294967295 4294967295 1.844674406512e+019
471	137874 25 451 451 2.40089964684 2.40089964684 1 0 0 0 0
472	137899 32 462 462 2.401653572802 2.401653572802 1 0.00176 0.00176 0.00176 3.0976e-006
473	137931 32 462 462 2.401653572802 2.401653572802 1 0.00022 0.00022 0.00022 4.84e-008
474	137963 32 462 462 2.401653572802 2.401653572802 1 0.65647 0.65647 0.65647 0.4309528609
475	137995 31 462 462 2.401653572802 2.401653572802 1 2.6261 2.6261 2.6261 6.89640121
476	138026 29 462 462 2.401653572802 2.401653572802 1 1072 1072 1072 1149184
477	138055 35 462 462 2.401653572802 2.401653572802 1 4294967295 4294967295 4294967295 1.844674406512e+019
478	138090 26 462 462 2.401653572802 2.401653572802 1 0 0 0 0
479	138116 31 465 465 2.40177564684 2.40177564684 1 0.00176 0.00176 0.00176 3.0976e-006
480	138147 31 465 465 2.40177564684 2.40177564684 1 0.00022 0.00022 0.00022 4.84e-008
481	138178 31 465 465 2.40177564684 2.40177564684 1 0.65647 0.65647 0.65647 0.4309528609
482	138209 30 465 465 2.40177564684 2.40177564684 1 2.6261 2.6261 2.6261 6.89640121
483	138239 28 465 465 2.40177564684 2.40177564684 1 1072 1072 1072 1149184
484	138267 34 465 465 2.40177564684 2.40177564684 1 4294967295 4294967295 4294967295 1.844674406512e+019
485	138301 25 465 465 2.40177564684 2.40177564684 1 0 0 0 0
486	138326 78 482 870 2.636884909452 3.724273773248 3 0 0 0 0
487	138404 122 482 870 2.636884909452 3.724273773248 4 7504 666953 2008363 1334535222643
488	138526 87 482 870 2.636884909452 3.724273773248 3 7504 7504 22512 168930048
489	138613 88 482 870 2.636884909452 3.724273773248 3 0 659449 1318898 869745967202
490	138701 161 485 872 2.636884909452 3.724273773248 6 40 44 250 10434
491	138862 161 485 872 2.636884909452 3.724273773248 6 40 44 250 10434
492	139023 310 485 872 2.636884909452 3.724273773248 12 0 1 6 6
493	139333 161 485 872 2.636884909452 3.724273773248 6 40 44 250 10434
494	139494 155 485 872 2.636884909452 3.724273773248 6 0 0 0 0
495	139649 161 485 872 2.636884909452 3.724273773248 6 47 51 292 14228
496	139810 161 487 874 2.637792909452 3.725157773248 6 47 51 292 14228
497	139971 161 487 874 2.637792909452 3.725157773248 6 40 44 250 10434
498	140132 124 489 876 2.637792909452 3.725157773248 4 666726 666728 2666906 1778096903212
499	140256 58 489 502 2.637792909452 2.639584909452 2 7504 7504 15008 112620032
500	140314 130 489 876 2.637792909452 3.725157773248 5 0 1 1 1
501	140444 87 489 876 2.637792909452 3.725157773248 3 7503 7504 22511 168915041
502	140531 93 489 876 2.637792909452 3.725157773248 3 659222 659224 1977669 1303724891189
503	140624 161 491 879 2.637792909452 3.725157773248 6 40 44 250 10434
504	140785 161 491 879 2.637792909452 3.725157773248 6 40 44 250 10434
505	140946 310 491 879 2.637792909452 3.725157773248 12 0 1 6 6
506	141256 161 491 879 2.637792909452 3.725157773248 6 40 44 250 10434
507	141417 155 491 879 2.637792909452 3.725157773248 6 0 0 0 0
508	141572 161 491 879 2.637792909452 3.725157773248 6 47 51 292 14228
509	141733 161 493 881 2.638700909452 3.726033773248 6 47 51 292 14228
510	141894 161 493 881 2.638700909452 3.726033773248 6 40 44 250 10434
511	142055 93 495 883 2.638700909452 3.726033773248 3 659448 659449 1978346 1304617631906
512	142148 93 495 883 2.638700909452 3.726033773248 3 659222 659224 1977669 1303724891189
513	142241 87 495 883 2.638700909452 3.726033773248 3 7503 7504 22511 168915041
514	142328 104 495 883 2.638700909452 3.726033773248 4 0 1 2 2
515	142432 62 502 876 2.639584909452 3.725157773248 2 659222 659223 1318445 869148609013
516	142494 62 502 876 2.639584909452 3.725157773248 2 659449 659449 1318898 869745967202
517	142556 26 502 502 2.639584909452 2.639584909452 1 0 0 0 0
518	142582 29 502 502 2.639584909452 2.639584909452 1 1072 1072 1072 1149184
519	142611 35 502 502 2.639584909452 2.639584909452 1 4294967295 4294967295 4294967295 1.844674406512e+019
520	142646 52 502 876 2.639584909452 3.725157773248 2 0 0 0 0
521	142698 64 512 883 2.640460909452 3.726033773248 2 0.00176 0.00176 0.00352 6.1952e-006
522	142762 66 512 883 2.640460909452 3.726033773248 2 0.00022 0.0004125 0.0006325 2.1855625e-007
523	142828 67 512 883 2.640460909452 3.726033773248 2 0.57460375 0.65647 1.23107375 0.76112233041406
524	142895 65 512 883 2.640460909452 3.726033773248 2 2.2988275 2.6261 4.9249275 12.181009084756
525	142960 58 512 883 2.640460909452 3.726033773248 2 1072 1608 2680 3734848
526	143018 70 512 883 2.640460909452 3.726033773248 2 4294967295 4294967295 8589934590 3.6893488130239e+019
527	143088 52 512 883 2.640460909452 3.726033773248 2 0 0 0 0
528	143140 78 514 578 2.658445348308 2.856571511826 3 0 0 0 0
529	143218 122 514 578 2.658445348308 2.856571511826 4 7504 672343 2024533 1356191638963
530	143340 87 514 578 2.658445348308 2.856571511826 3 7504 7504 22512 168930048
531	143427 88 514 578 2.658445348308 2.856571511826 3 0 664839 1329678 884021791842
532	143515 124 521 584 2.659353348308 2.857455511826 4 672116 672118 2688466 1806962358292
533	143639 58 521 534 2.659353348308 2.661145348308 2 7504 7504 15008 112620032
534	143697 130 521 584 2.659353348308 2.857455511826 5 0 1 1 1
535	143827 87 521 584 2.659353348308 2.857455511826 3 7503 7504 22511 168915041
536	143914 93 521 584 2.659353348308 2.857455511826 3 664612 664614 1993839 1325131319309
537	144007 93 527 591 2.660261348308 2.858331511826 3 664838 664839 1994516 1326031358086
538	144100 93 527 591 2.660261348308 2.858331511826 3 664612 664614 1993839 1325131319309
539	144193 87 527 591 2.660261348308 2.858331511826 3 7503 7504 22511 168915041
540	144280 104 527 591 2.660261348308 2.858331511826 4 0 1 2 2
541	144384 62 534 584 2.661145348308 2.857455511826 2 664612 664613 1329225 883419550313
542	144446 62 534 584 2.661145348308 2.857455511826 2 664839 664839 1329678 884021791842
543	144508 26 534 534 2.661145348308 2.661145348308 1 0 0 0 0
544	144534 29 534 534 2.661145348308 2.661145348308 1 1072 1072 1072 1149184
545	144563 35 534 534 2.661145348308 2.661145348308 1 4294967295 4294967295 4294967295 1.844674406512e+019
546	144598 52 534 584 2.661145348308 2.857455511826 2 0 0 0 0
547	144650 64 544 591 2.662021348308 2.858331511826 2 0.00176 0.00176 0.00352 6.1952e-006
548	144714 66 544 591 2.662021348308 2.858331511826 2 0.00022 0.0004125 0.0006325 2.1855625e-007
549	144780 67 544 591 2.662021348308 2.858331511826 2 0.57460375 0.65647 1.23107375 0.76112233041406
550	144847 65 544 591 2.662021348308 2.858331511826 2 2.2988275 2.6261 4.9249275 12.181009084756
551	144912 58 544 591 2.662021348308 2.858331511826 2 1072 1608 2680 3734848
552	144970 70 544 591 2.662021348308 2.858331511826 2 4294967295 4294967295 8589934590 3.6893488130239e+019
553	145040 52 544 591 2.662021348308 2.858331511826 2 0 0 0 0
554	145092 78 546 705 2.748963247413 3.072032188727 3 0 0 0 0
555	145170 122 546 705 2.748963247413 3.072032188727 4 7504 694972 2092420 1449014552368
556	145292 87 546 705 2.748963247413 3.072032188727 3 7504 7504 22512 168930048
557	145379 88 546 705 2.748963247413 3.072032188727 3 0 687468 1374936 945224502048
558	145467 124 553 711 2.749871247413 3.072916188727 4 694745 694747 2778982 1930685239084
559	145591 58 553 566 2.749871247413 2.751663247413 2 7504 7504 15008 112620032
560	145649 130 553 711 2.749871247413 3.072916188727 5 0 1 1 1
561	145779 87 553 711 2.749871247413 3.072916188727 3 7503 7504 22511 168915041
562	145866 93 553 711 2.749871247413 3.072916188727 3 687241 687243 2061726 1416904699694
563	145959 93 559 718 2.750779247413 3.073792188727 3 687467 687468 2062403 1417835378137
564	146052 93 559 718 2.750779247413 3.073792188727 3 687241 687243 2061726 1416904699694
565	146145 87 559 718 2.750779247413 3.073792188727 3 7503 7504 22511 168915041
566	146232 104 559 718 2.750779247413 3.073792188727 4 0 1 2 2
567	146336 62 566 711 2.751663247413 3.072916188727 2 687241 687242 1374483 944601758645
568	146398 62 566 711 2.751663247413 3.072916188727 2 687468 687468 1374936 945224502048
569	146460 26 566 566 2.751663247413 2.751663247413 1 0 0 0 0
570	146486 29 566 566 2.751663247413 2.751663247413 1 1072 1072 1072 1149184
571	146515 35 566 566 2.751663247413 2.751663247413 1 4294967295 4294967295 4294967295 1.844674406512e+019
572	146550 52 566 711 2.751663247413 3.072916188727 2 0 0 0 0
573	146602 64 576 718 2.752539247413 3.073792188727 2 0.00176 0.00176 0.00352 6.1952e-006
574	146666 66 576 718 2.752539247413 3.073792188727 2 0.00022 0.0004125 0.0006325 2.1855625e-007
575	146732 67 576 718 2.752539247413 3.073792188727 2 0.57460375 0.65647 1.23107375 0.76112233041406
576	146799 65 576 718 2.752539247413 3.073792188727 2 2.2988275 2.6261 4.9249275 12.181009084756
577	146864 58 576 718 2.752539247413 3.073792188727 2 1072 1608 2680 3734848
578	146922 70 576 718 2.752539247413 3.073792188727 2 4294967295 4294967295 8589934590 3.6893488130239e+019
579	146992 52 576 718 2.752539247413 3.073792188727 2 0 0 0 0
580	147044 77 638 690 2.949547039034 3.01767872335 3 0 0 0 0
581	147121 121 638 690 2.949547039034 3.01767872335 4 7504 745118 2242858 1665658811788
582	147242 86 638 690 2.949547039034 3.01767872335 3 7504 7504 22512 168930048
583	147328 87 638 690 2.949547039034 3.01767872335 3 0 737614 1475228 1088148825992
584	147415 123 645 696 2.950455039034 3.01856272335 4 744891 744893 2979566 2219453387092
585	147538 58 645 658 2.950455039034 2.952247039034 2 7504 7504 15008 112620032
586	147596 128 645 696 2.950455039034 3.01856272335 5 0 1 1 1
587	147724 86 645 696 2.950455039034 3.01856272335 3 7503 7504 22511 168915041
588	147810 92 645 696 2.950455039034 3.01856272335 3 737387 737389 2212164 1631223187634
589	147902 92 651 703 2.951363039034 3.01943872335 3 737613 737614 2212841 1632221763761
590	147994 92 651 703 2.951363039034 3.01943872335 3 737387 737389 2212164 1631223187634
591	148086 86 651 703 2.951363039034 3.01943872335 3 7503 7504 22511 168915041
592	148172 102 651 703 2.951363039034 3.01943872335 4 0 1 2 2
593	148274 61 658 696 2.952247039034 3.01856272335 2 737387 737388 1474775 1087480650313
594	148335 61 658 696 2.952247039034 3.01856272335 2 737614 737614 1475228 1088148825992
595	148396 26 658 658 2.952247039034 2.952247039034 1 0 0 0 0
596	148422 29 658 658 2.952247039034 2.952247039034 1 1072 1072 1072 1149184
597	148451 35 658 658 2.952247039034 2.952247039034 1 4294967295 4294967295 4294967295 1.844674406512e+019
598	148486 51 658 696 2.952247039034 3.01856272335 2 0 0 0 0
599	148537 63 668 703 2.953123039034 3.01943872335 2 0.00176 0.00176 0.00352 6.1952e-006
600	148600 65 668 703 2.953123039034 3.01943872335 2 0.00022 0.0004125 0.0006325 2.1855625e-007
601	148665 66 668 703 2.953123039034 3.01943872335 2 0.57460375 0.65647 1.23107375 0.76112233041406
602	148731 64 668 703 2.953123039034 3.01943872335 2 2.2988275 2.6261 4.9249275 12.181009084756
603	148795 57 668 703 2.953123039034 3.01943872335 2 1072 1608 2680 3734848
604	148852 69 668 703 2.953123039034 3.01943872335 2 4294967295 4294967295 8589934590 3.6893488130239e+019
605	148921 51 668 703 2.953123039034 3.01943872335 2 0 0 0 0

