version 2
run BROADCAST6c-0-20220207-18:30:06-12036
attr configname BROADCAST6c
attr datetime 20220207-18:30:06
attr experiment BROADCAST6c
attr inifile omnetpp.ini
attr iterationvars ""
attr iterationvarsf ""
attr measurement ""
attr network scenario
attr processid 12036
attr repetition 0
attr replication #0
attr resultdir results
attr runnumber 0
attr seedset 0
param *.n 6
param **.client[*].app[0].nPar 6
param **.client[*].app[0].nNPar 1
param **.client[0].app[0].numMsg 4
param **.client[0].app[0].sendFrequency 2.5
param **.client[0].app[0].startSend 0.0
param **.client[5].app[0].join 2.0
param **.client[4].app[0].leave 0.5
param **.ppp[*].ppp.queue.typename "\"DropTailQueue\""
param **.tcp.typename "\"Tcp\""
param **.tcp.nagleEnabled false
param **.client[*].app[*].fPar 0
param **.numApps 1
param **.client[*].app[*].typename "\"Node\""
param **.client[*].app[0].localPort index+1000
param **.client[*].app[0].localPortL 1234
param **.client[*].app[0].connectAddress "\"\""
param **.client[*].app[0].connectPort 1234

scalar scenario.client[0].lo[0].lo rcvdPkFromHl:count 0
attr interpolationmode none
attr source packetReceivedFromUpper
attr title "packets received from higher layer, count"
scalar scenario.client[0].lo[0].lo rcvdPkFromHl:sum(packetBytes) 0
attr interpolationmode none
attr source packetReceivedFromUpper
attr title "packets received from higher layer, sum(packetBytes)"
scalar scenario.client[0].lo[0].lo passedUpPk:count 0
attr interpolationmode none
attr source packetSentToUpper
attr title "packets passed to higher layer, count"
scalar scenario.client[0].lo[0].lo passedUpPk:sum(packetBytes) 0
attr interpolationmode none
attr source packetSentToUpper
attr title "packets passed to higher layer, sum(packetBytes)"
scalar scenario.client[0].ppp[0].ppp.queue packetPopped:count 211
attr interpolationmode none
attr title "packet popped, count"
scalar scenario.client[0].ppp[0].ppp.queue packetPopped:sum(packetBytes) 8554
attr interpolationmode none
attr title "packet popped, sum(packetBytes)"
statistic scenario.client[0].ppp[0].ppp.queue queueingTime:histogram
field count 211
field mean 1.9601895734597e-005
field stddev 8.3781534482239e-005
field min 0
field max 0.000376
field sum 0.004136
field sqrsum 1.555136e-006
attr interpolationmode none
attr source queueingTime(packetPopped)
attr title "queueing times, histogram"
attr unit s
bin	-inf	0
bin	0	200
bin	1e-005	0
bin	2e-005	0
bin	3e-005	0
bin	4e-005	0
bin	5e-005	0
bin	6e-005	0
bin	7e-005	0
bin	8e-005	0
bin	9e-005	0
bin	0.0001	0
bin	0.00011	0
bin	0.00012	0
bin	0.00013	0
bin	0.00014	0
bin	0.00015	0
bin	0.00016	0
bin	0.00017	0
bin	0.00018	0
bin	0.00019	0
bin	0.0002	0
bin	0.00021	0
bin	0.00022	0
bin	0.00023	0
bin	0.00024	0
bin	0.00025	0
bin	0.00026	0
bin	0.00027	0
bin	0.00028	0
bin	0.00029	0
bin	0.0003	0
bin	0.00031	0
bin	0.00032	0
bin	0.00033	0
bin	0.00034	0
bin	0.00035	0
bin	0.00036	0
bin	0.00037	11
bin	0.00038	0
bin	0.00039	0
bin	0.0004	0
bin	0.00041	0
bin	0.00042	0
bin	0.00043	0
bin	0.00044	0
bin	0.00045	0
bin	0.00046	0
bin	0.00047	0
scalar scenario.client[0].ppp[0].ppp.queue queueLength:max 1
attr interpolationmode sample-hold
attr source "count(packetPushed) - count(packetPopped) - count(packetRemoved) - count(packetDropped)"
attr title "queue length, max"
scalar scenario.client[0].ppp[0].ppp.queue queueLength:timeavg 1.4098237720285e-007
attr interpolationmode sample-hold
attr source "count(packetPushed) - count(packetPopped) - count(packetRemoved) - count(packetDropped)"
attr title "queue length, timeavg"
scalar scenario.client[0].ppp[0].ppp.queue packetPushed:count 211
attr interpolationmode none
attr title "packet pushed, count"
scalar scenario.client[0].ppp[0].ppp.queue packetPushed:sum(packetBytes) 8554
attr interpolationmode none
attr title "packet pushed, sum(packetBytes)"
scalar scenario.client[0].ppp[0].ppp.queue packetDropQueueOverflow:count 0
attr interpolationmode none
attr source packetDropReasonIsQueueOverflow(packetDropped)
attr title "packet drops: queue overflow, count"
scalar scenario.client[0].ppp[0].ppp.queue packetDropQueueOverflow:sum(packetBytes) 0
attr interpolationmode none
attr source packetDropReasonIsQueueOverflow(packetDropped)
attr title "packet drops: queue overflow, sum(packetBytes)"
scalar scenario.client[0].ppp[0].ppp.queue packetRemoved:count 0
attr interpolationmode none
attr title "packets removed, count"
scalar scenario.client[0].ppp[0].ppp.queue packetRemoved:sum(packetBytes) 0
attr interpolationmode none
attr title "packets removed, sum(packetBytes)"
scalar scenario.client[0].ppp[0].ppp txPk:count 211
attr interpolationmode none
attr source packetSentToLower
attr title "packets transmitted, count"
scalar scenario.client[0].ppp[0].ppp txPk:sum(packetBytes) 10031
attr interpolationmode none
attr source packetSentToLower
attr title "packets transmitted, sum(packetBytes)"
scalar scenario.client[0].ppp[0].ppp rcvdPkFromHl:count 211
attr interpolationmode none
attr source packetReceivedFromUpper
attr title "packets received from higher layer, count"
scalar scenario.client[0].ppp[0].ppp rcvdPkFromHl:sum(packetBytes) 8554
attr interpolationmode none
attr source packetReceivedFromUpper
attr title "packets received from higher layer, sum(packetBytes)"
scalar scenario.client[0].ppp[0].ppp passedUpPk:count 211
attr interpolationmode none
attr source packetSentToUpper
attr title "packets passed to higher layer, count"
scalar scenario.client[0].ppp[0].ppp passedUpPk:sum(packetBytes) 8555
attr interpolationmode none
attr source packetSentToUpper
attr title "packets passed to higher layer, sum(packetBytes)"
scalar scenario.client[0].ppp[0].ppp packetDropIncorrectlyReceived:count 0
attr interpolationmode none
attr source packetDropReasonIsIncorrectlyReceived(packetDropped)
attr title "packet drop: incorrectly received, count"
scalar scenario.client[0].ppp[0].ppp packetDropIncorrectlyReceived:sum(packetBytes) 0
attr interpolationmode none
attr source packetDropReasonIsIncorrectlyReceived(packetDropped)
attr title "packet drop: incorrectly received, sum(packetBytes)"
scalar scenario.client[0].ppp[0].ppp packetDropInterfaceDown:count 0
attr interpolationmode none
attr source packetDropReasonIsInterfaceDown(packetDropped)
attr title "packet drop: interface down, count"
scalar scenario.client[0].ppp[0].ppp packetDropInterfaceDown:sum(packetBytes) 0
attr interpolationmode none
attr source packetDropReasonIsInterfaceDown(packetDropped)
attr title "packet drop: interface down, sum(packetBytes)"
scalar scenario.client[0].ppp[0].ppp rxPkOk:count 211
attr interpolationmode none
attr source rxPkOk
attr title "packets received OK, count"
scalar scenario.client[0].ppp[0].ppp rxPkOk:sum(packetBytes) 10032
attr interpolationmode none
attr source rxPkOk
attr title "packets received OK, sum(packetBytes)"
scalar scenario.client[0].ppp[0].ppp transmissionState:timeavg 2.7353853495586e-006
attr interpolationmode sample-hold
attr source transmissionStateChanged
attr title "tx state, timeavg"
scalar scenario.client[0].ppp[1].ppp.queue packetPopped:count 211
attr interpolationmode none
attr title "packet popped, count"
scalar scenario.client[0].ppp[1].ppp.queue packetPopped:sum(packetBytes) 8554
attr interpolationmode none
attr title "packet popped, sum(packetBytes)"
statistic scenario.client[0].ppp[1].ppp.queue queueingTime:histogram
field count 211
field mean 2.3165876777251e-005
field stddev 9.062358555383e-005
field min 0
field max 0.000376
field sum 0.004888
field sqrsum 1.837888e-006
attr interpolationmode none
attr source queueingTime(packetPopped)
attr title "queueing times, histogram"
attr unit s
bin	-inf	0
bin	0	198
bin	1e-005	0
bin	2e-005	0
bin	3e-005	0
bin	4e-005	0
bin	5e-005	0
bin	6e-005	0
bin	7e-005	0
bin	8e-005	0
bin	9e-005	0
bin	0.0001	0
bin	0.00011	0
bin	0.00012	0
bin	0.00013	0
bin	0.00014	0
bin	0.00015	0
bin	0.00016	0
bin	0.00017	0
bin	0.00018	0
bin	0.00019	0
bin	0.0002	0
bin	0.00021	0
bin	0.00022	0
bin	0.00023	0
bin	0.00024	0
bin	0.00025	0
bin	0.00026	0
bin	0.00027	0
bin	0.00028	0
bin	0.00029	0
bin	0.0003	0
bin	0.00031	0
bin	0.00032	0
bin	0.00033	0
bin	0.00034	0
bin	0.00035	0
bin	0.00036	0
bin	0.00037	13
bin	0.00038	0
bin	0.00039	0
bin	0.0004	0
bin	0.00041	0
bin	0.00042	0
bin	0.00043	0
bin	0.00044	0
bin	0.00045	0
bin	0.00046	0
bin	0.00047	0
scalar scenario.client[0].ppp[1].ppp.queue queueLength:max 1
attr interpolationmode sample-hold
attr source "count(packetPushed) - count(packetPopped) - count(packetRemoved) - count(packetDropped)"
attr title "queue length, max"
scalar scenario.client[0].ppp[1].ppp.queue queueLength:timeavg 1.6661790291917e-007
attr interpolationmode sample-hold
attr source "count(packetPushed) - count(packetPopped) - count(packetRemoved) - count(packetDropped)"
attr title "queue length, timeavg"
scalar scenario.client[0].ppp[1].ppp.queue packetPushed:count 211
attr interpolationmode none
attr title "packet pushed, count"
scalar scenario.client[0].ppp[1].ppp.queue packetPushed:sum(packetBytes) 8554
attr interpolationmode none
attr title "packet pushed, sum(packetBytes)"
scalar scenario.client[0].ppp[1].ppp.queue packetDropQueueOverflow:count 0
attr interpolationmode none
attr source packetDropReasonIsQueueOverflow(packetDropped)
attr title "packet drops: queue overflow, count"
scalar scenario.client[0].ppp[1].ppp.queue packetDropQueueOverflow:sum(packetBytes) 0
attr interpolationmode none
attr source packetDropReasonIsQueueOverflow(packetDropped)
attr title "packet drops: queue overflow, sum(packetBytes)"
scalar scenario.client[0].ppp[1].ppp.queue packetRemoved:count 0
attr interpolationmode none
attr title "packets removed, count"
scalar scenario.client[0].ppp[1].ppp.queue packetRemoved:sum(packetBytes) 0
attr interpolationmode none
attr title "packets removed, sum(packetBytes)"
scalar scenario.client[0].ppp[1].ppp txPk:count 211
attr interpolationmode none
attr source packetSentToLower
attr title "packets transmitted, count"
scalar scenario.client[0].ppp[1].ppp txPk:sum(packetBytes) 10031
attr interpolationmode none
attr source packetSentToLower
attr title "packets transmitted, sum(packetBytes)"
scalar scenario.client[0].ppp[1].ppp rcvdPkFromHl:count 211
attr interpolationmode none
attr source packetReceivedFromUpper
attr title "packets received from higher layer, count"
scalar scenario.client[0].ppp[1].ppp rcvdPkFromHl:sum(packetBytes) 8554
attr interpolationmode none
attr source packetReceivedFromUpper
attr title "packets received from higher layer, sum(packetBytes)"
scalar scenario.client[0].ppp[1].ppp passedUpPk:count 211
attr interpolationmode none
attr source packetSentToUpper
attr title "packets passed to higher layer, count"
scalar scenario.client[0].ppp[1].ppp passedUpPk:sum(packetBytes) 8555
attr interpolationmode none
attr source packetSentToUpper
attr title "packets passed to higher layer, sum(packetBytes)"
scalar scenario.client[0].ppp[1].ppp packetDropIncorrectlyReceived:count 0
attr interpolationmode none
attr source packetDropReasonIsIncorrectlyReceived(packetDropped)
attr title "packet drop: incorrectly received, count"
scalar scenario.client[0].ppp[1].ppp packetDropIncorrectlyReceived:sum(packetBytes) 0
attr interpolationmode none
attr source packetDropReasonIsIncorrectlyReceived(packetDropped)
attr title "packet drop: incorrectly received, sum(packetBytes)"
scalar scenario.client[0].ppp[1].ppp packetDropInterfaceDown:count 0
attr interpolationmode none
attr source packetDropReasonIsInterfaceDown(packetDropped)
attr title "packet drop: interface down, count"
scalar scenario.client[0].ppp[1].ppp packetDropInterfaceDown:sum(packetBytes) 0
attr interpolationmode none
attr source packetDropReasonIsInterfaceDown(packetDropped)
attr title "packet drop: interface down, sum(packetBytes)"
scalar scenario.client[0].ppp[1].ppp rxPkOk:count 211
attr interpolationmode none
attr source rxPkOk
attr title "packets received OK, count"
scalar scenario.client[0].ppp[1].ppp rxPkOk:sum(packetBytes) 10032
attr interpolationmode none
attr source rxPkOk
attr title "packets received OK, sum(packetBytes)"
scalar scenario.client[0].ppp[1].ppp transmissionState:timeavg 2.7353853495586e-006
attr interpolationmode sample-hold
attr source transmissionStateChanged
attr title "tx state, timeavg"
scalar scenario.client[0].ppp[2].ppp.queue packetPopped:count 211
attr interpolationmode none
attr title "packet popped, count"
scalar scenario.client[0].ppp[2].ppp.queue packetPopped:sum(packetBytes) 8552
attr interpolationmode none
attr title "packet popped, sum(packetBytes)"
statistic scenario.client[0].ppp[2].ppp.queue queueingTime:histogram
field count 211
field mean 1.6037914691943e-005
field stddev 7.6161223000712e-005
field min 0
field max 0.000376
field sum 0.003384
field sqrsum 1.272384e-006
attr interpolationmode none
attr source queueingTime(packetPopped)
attr title "queueing times, histogram"
attr unit s
bin	-inf	0
bin	0	202
bin	1e-005	0
bin	2e-005	0
bin	3e-005	0
bin	4e-005	0
bin	5e-005	0
bin	6e-005	0
bin	7e-005	0
bin	8e-005	0
bin	9e-005	0
bin	0.0001	0
bin	0.00011	0
bin	0.00012	0
bin	0.00013	0
bin	0.00014	0
bin	0.00015	0
bin	0.00016	0
bin	0.00017	0
bin	0.00018	0
bin	0.00019	0
bin	0.0002	0
bin	0.00021	0
bin	0.00022	0
bin	0.00023	0
bin	0.00024	0
bin	0.00025	0
bin	0.00026	0
bin	0.00027	0
bin	0.00028	0
bin	0.00029	0
bin	0.0003	0
bin	0.00031	0
bin	0.00032	0
bin	0.00033	0
bin	0.00034	0
bin	0.00035	0
bin	0.00036	0
bin	0.00037	9
bin	0.00038	0
bin	0.00039	0
bin	0.0004	0
bin	0.00041	0
bin	0.00042	0
bin	0.00043	0
bin	0.00044	0
bin	0.00045	0
bin	0.00046	0
bin	0.00047	0
scalar scenario.client[0].ppp[2].ppp.queue queueLength:max 1
attr interpolationmode sample-hold
attr source "count(packetPushed) - count(packetPopped) - count(packetRemoved) - count(packetDropped)"
attr title "queue length, max"
scalar scenario.client[0].ppp[2].ppp.queue queueLength:timeavg 1.1535206122528e-007
attr interpolationmode sample-hold
attr source "count(packetPushed) - count(packetPopped) - count(packetRemoved) - count(packetDropped)"
attr title "queue length, timeavg"
scalar scenario.client[0].ppp[2].ppp.queue packetPushed:count 211
attr interpolationmode none
attr title "packet pushed, count"
scalar scenario.client[0].ppp[2].ppp.queue packetPushed:sum(packetBytes) 8552
attr interpolationmode none
attr title "packet pushed, sum(packetBytes)"
scalar scenario.client[0].ppp[2].ppp.queue packetDropQueueOverflow:count 0
attr interpolationmode none
attr source packetDropReasonIsQueueOverflow(packetDropped)
attr title "packet drops: queue overflow, count"
scalar scenario.client[0].ppp[2].ppp.queue packetDropQueueOverflow:sum(packetBytes) 0
attr interpolationmode none
attr source packetDropReasonIsQueueOverflow(packetDropped)
attr title "packet drops: queue overflow, sum(packetBytes)"
scalar scenario.client[0].ppp[2].ppp.queue packetRemoved:count 0
attr interpolationmode none
attr title "packets removed, count"
scalar scenario.client[0].ppp[2].ppp.queue packetRemoved:sum(packetBytes) 0
attr interpolationmode none
attr title "packets removed, sum(packetBytes)"
scalar scenario.client[0].ppp[2].ppp txPk:count 211
attr interpolationmode none
attr source packetSentToLower
attr title "packets transmitted, count"
scalar scenario.client[0].ppp[2].ppp txPk:sum(packetBytes) 10029
attr interpolationmode none
attr source packetSentToLower
attr title "packets transmitted, sum(packetBytes)"
scalar scenario.client[0].ppp[2].ppp rcvdPkFromHl:count 211
attr interpolationmode none
attr source packetReceivedFromUpper
attr title "packets received from higher layer, count"
scalar scenario.client[0].ppp[2].ppp rcvdPkFromHl:sum(packetBytes) 8552
attr interpolationmode none
attr source packetReceivedFromUpper
attr title "packets received from higher layer, sum(packetBytes)"
scalar scenario.client[0].ppp[2].ppp passedUpPk:count 211
attr interpolationmode none
attr source packetSentToUpper
attr title "packets passed to higher layer, count"
scalar scenario.client[0].ppp[2].ppp passedUpPk:sum(packetBytes) 8557
attr interpolationmode none
attr source packetSentToUpper
attr title "packets passed to higher layer, sum(packetBytes)"
scalar scenario.client[0].ppp[2].ppp packetDropIncorrectlyReceived:count 0
attr interpolationmode none
attr source packetDropReasonIsIncorrectlyReceived(packetDropped)
attr title "packet drop: incorrectly received, count"
scalar scenario.client[0].ppp[2].ppp packetDropIncorrectlyReceived:sum(packetBytes) 0
attr interpolationmode none
attr source packetDropReasonIsIncorrectlyReceived(packetDropped)
attr title "packet drop: incorrectly received, sum(packetBytes)"
scalar scenario.client[0].ppp[2].ppp packetDropInterfaceDown:count 0
attr interpolationmode none
attr source packetDropReasonIsInterfaceDown(packetDropped)
attr title "packet drop: interface down, count"
scalar scenario.client[0].ppp[2].ppp packetDropInterfaceDown:sum(packetBytes) 0
attr interpolationmode none
attr source packetDropReasonIsInterfaceDown(packetDropped)
attr title "packet drop: interface down, sum(packetBytes)"
scalar scenario.client[0].ppp[2].ppp rxPkOk:count 211
attr interpolationmode none
attr source rxPkOk
attr title "packets received OK, count"
scalar scenario.client[0].ppp[2].ppp rxPkOk:sum(packetBytes) 10034
attr interpolationmode none
attr source rxPkOk
attr title "packets received OK, sum(packetBytes)"
scalar scenario.client[0].ppp[2].ppp transmissionState:timeavg 2.7348399631864e-006
attr interpolationmode sample-hold
attr source transmissionStateChanged
attr title "tx state, timeavg"
scalar scenario.client[0].ppp[3].ppp.queue packetPopped:count 396
attr interpolationmode none
attr title "packet popped, count"
scalar scenario.client[0].ppp[3].ppp.queue packetPopped:sum(packetBytes) 16036
attr interpolationmode none
attr title "packet popped, sum(packetBytes)"
statistic scenario.client[0].ppp[3].ppp.queue queueingTime:histogram
field count 396
field mean 0.00010824242424242
field stddev 0.00017045850846179
field min 0
field max 0.000376
field sum 0.042864
field sqrsum 1.6116864e-005
attr interpolationmode none
attr source queueingTime(packetPopped)
attr title "queueing times, histogram"
attr unit s
bin	-inf	0
bin	0	282
bin	1e-005	0
bin	2e-005	0
bin	3e-005	0
bin	4e-005	0
bin	5e-005	0
bin	6e-005	0
bin	7e-005	0
bin	8e-005	0
bin	9e-005	0
bin	0.0001	0
bin	0.00011	0
bin	0.00012	0
bin	0.00013	0
bin	0.00014	0
bin	0.00015	0
bin	0.00016	0
bin	0.00017	0
bin	0.00018	0
bin	0.00019	0
bin	0.0002	0
bin	0.00021	0
bin	0.00022	0
bin	0.00023	0
bin	0.00024	0
bin	0.00025	0
bin	0.00026	0
bin	0.00027	0
bin	0.00028	0
bin	0.00029	0
bin	0.0003	0
bin	0.00031	0
bin	0.00032	0
bin	0.00033	0
bin	0.00034	0
bin	0.00035	0
bin	0.00036	0
bin	0.00037	114
bin	0.00038	0
bin	0.00039	0
bin	0.0004	0
bin	0.00041	0
bin	0.00042	0
bin	0.00043	0
bin	0.00044	0
bin	0.00045	0
bin	0.00046	0
bin	0.00047	0
scalar scenario.client[0].ppp[3].ppp.queue queueLength:max 1
attr interpolationmode sample-hold
attr source "count(packetPushed) - count(packetPopped) - count(packetRemoved) - count(packetDropped)"
attr title "queue length, max"
scalar scenario.client[0].ppp[3].ppp.queue queueLength:timeavg 1.461115038491e-006
attr interpolationmode sample-hold
attr source "count(packetPushed) - count(packetPopped) - count(packetRemoved) - count(packetDropped)"
attr title "queue length, timeavg"
scalar scenario.client[0].ppp[3].ppp.queue packetPushed:count 396
attr interpolationmode none
attr title "packet pushed, count"
scalar scenario.client[0].ppp[3].ppp.queue packetPushed:sum(packetBytes) 16036
attr interpolationmode none
attr title "packet pushed, sum(packetBytes)"
scalar scenario.client[0].ppp[3].ppp.queue packetDropQueueOverflow:count 0
attr interpolationmode none
attr source packetDropReasonIsQueueOverflow(packetDropped)
attr title "packet drops: queue overflow, count"
scalar scenario.client[0].ppp[3].ppp.queue packetDropQueueOverflow:sum(packetBytes) 0
attr interpolationmode none
attr source packetDropReasonIsQueueOverflow(packetDropped)
attr title "packet drops: queue overflow, sum(packetBytes)"
scalar scenario.client[0].ppp[3].ppp.queue packetRemoved:count 0
attr interpolationmode none
attr title "packets removed, count"
scalar scenario.client[0].ppp[3].ppp.queue packetRemoved:sum(packetBytes) 0
attr interpolationmode none
attr title "packets removed, sum(packetBytes)"
scalar scenario.client[0].ppp[3].ppp txPk:count 396
attr interpolationmode none
attr source packetSentToLower
attr title "packets transmitted, count"
scalar scenario.client[0].ppp[3].ppp txPk:sum(packetBytes) 18808
attr interpolationmode none
attr source packetSentToLower
attr title "packets transmitted, sum(packetBytes)"
scalar scenario.client[0].ppp[3].ppp rcvdPkFromHl:count 396
attr interpolationmode none
attr source packetReceivedFromUpper
attr title "packets received from higher layer, count"
scalar scenario.client[0].ppp[3].ppp rcvdPkFromHl:sum(packetBytes) 16036
attr interpolationmode none
attr source packetReceivedFromUpper
attr title "packets received from higher layer, sum(packetBytes)"
scalar scenario.client[0].ppp[3].ppp passedUpPk:count 396
attr interpolationmode none
attr source packetSentToUpper
attr title "packets passed to higher layer, count"
scalar scenario.client[0].ppp[3].ppp passedUpPk:sum(packetBytes) 16058
attr interpolationmode none
attr source packetSentToUpper
attr title "packets passed to higher layer, sum(packetBytes)"
scalar scenario.client[0].ppp[3].ppp packetDropIncorrectlyReceived:count 0
attr interpolationmode none
attr source packetDropReasonIsIncorrectlyReceived(packetDropped)
attr title "packet drop: incorrectly received, count"
scalar scenario.client[0].ppp[3].ppp packetDropIncorrectlyReceived:sum(packetBytes) 0
attr interpolationmode none
attr source packetDropReasonIsIncorrectlyReceived(packetDropped)
attr title "packet drop: incorrectly received, sum(packetBytes)"
scalar scenario.client[0].ppp[3].ppp packetDropInterfaceDown:count 0
attr interpolationmode none
attr source packetDropReasonIsInterfaceDown(packetDropped)
attr title "packet drop: interface down, count"
scalar scenario.client[0].ppp[3].ppp packetDropInterfaceDown:sum(packetBytes) 0
attr interpolationmode none
attr source packetDropReasonIsInterfaceDown(packetDropped)
attr title "packet drop: interface down, sum(packetBytes)"
scalar scenario.client[0].ppp[3].ppp rxPkOk:count 396
attr interpolationmode none
attr source rxPkOk
attr title "packets received OK, count"
scalar scenario.client[0].ppp[3].ppp rxPkOk:sum(packetBytes) 18830
attr interpolationmode none
attr source rxPkOk
attr title "packets received OK, sum(packetBytes)"
scalar scenario.client[0].ppp[3].ppp transmissionState:timeavg 5.1288134437741e-006
attr interpolationmode sample-hold
attr source transmissionStateChanged
attr title "tx state, timeavg"
scalar scenario.client[0].ppp[4].ppp.queue packetPopped:count 47
attr interpolationmode none
attr title "packet popped, count"
scalar scenario.client[0].ppp[4].ppp.queue packetPopped:sum(packetBytes) 1914
attr interpolationmode none
attr title "packet popped, sum(packetBytes)"
statistic scenario.client[0].ppp[4].ppp.queue queueingTime:histogram
field count 47
field mean 6.4e-005
field stddev 0.00014283587419315
field min 0
field max 0.000376
field sum 0.003008
field sqrsum 1.131008e-006
attr interpolationmode none
attr source queueingTime(packetPopped)
attr title "queueing times, histogram"
attr unit s
bin	-inf	0
bin	0	39
bin	1e-005	0
bin	2e-005	0
bin	3e-005	0
bin	4e-005	0
bin	5e-005	0
bin	6e-005	0
bin	7e-005	0
bin	8e-005	0
bin	9e-005	0
bin	0.0001	0
bin	0.00011	0
bin	0.00012	0
bin	0.00013	0
bin	0.00014	0
bin	0.00015	0
bin	0.00016	0
bin	0.00017	0
bin	0.00018	0
bin	0.00019	0
bin	0.0002	0
bin	0.00021	0
bin	0.00022	0
bin	0.00023	0
bin	0.00024	0
bin	0.00025	0
bin	0.00026	0
bin	0.00027	0
bin	0.00028	0
bin	0.00029	0
bin	0.0003	0
bin	0.00031	0
bin	0.00032	0
bin	0.00033	0
bin	0.00034	0
bin	0.00035	0
bin	0.00036	0
bin	0.00037	8
bin	0.00038	0
bin	0.00039	0
bin	0.0004	0
bin	0.00041	0
bin	0.00042	0
bin	0.00043	0
bin	0.00044	0
bin	0.00045	0
bin	0.00046	0
bin	0.00047	0
scalar scenario.client[0].ppp[4].ppp.queue queueLength:max 1
attr interpolationmode sample-hold
attr source "count(packetPushed) - count(packetPopped) - count(packetRemoved) - count(packetDropped)"
attr title "queue length, max"
scalar scenario.client[0].ppp[4].ppp.queue queueLength:timeavg 1.0253963160409e-007
attr interpolationmode sample-hold
attr source "count(packetPushed) - count(packetPopped) - count(packetRemoved) - count(packetDropped)"
attr title "queue length, timeavg"
scalar scenario.client[0].ppp[4].ppp.queue packetPushed:count 47
attr interpolationmode none
attr title "packet pushed, count"
scalar scenario.client[0].ppp[4].ppp.queue packetPushed:sum(packetBytes) 1914
attr interpolationmode none
attr title "packet pushed, sum(packetBytes)"
scalar scenario.client[0].ppp[4].ppp.queue packetDropQueueOverflow:count 0
attr interpolationmode none
attr source packetDropReasonIsQueueOverflow(packetDropped)
attr title "packet drops: queue overflow, count"
scalar scenario.client[0].ppp[4].ppp.queue packetDropQueueOverflow:sum(packetBytes) 0
attr interpolationmode none
attr source packetDropReasonIsQueueOverflow(packetDropped)
attr title "packet drops: queue overflow, sum(packetBytes)"
scalar scenario.client[0].ppp[4].ppp.queue packetRemoved:count 0
attr interpolationmode none
attr title "packets removed, count"
scalar scenario.client[0].ppp[4].ppp.queue packetRemoved:sum(packetBytes) 0
attr interpolationmode none
attr title "packets removed, sum(packetBytes)"
scalar scenario.client[0].ppp[4].ppp txPk:count 47
attr interpolationmode none
attr source packetSentToLower
attr title "packets transmitted, count"
scalar scenario.client[0].ppp[4].ppp txPk:sum(packetBytes) 2243
attr interpolationmode none
attr source packetSentToLower
attr title "packets transmitted, sum(packetBytes)"
scalar scenario.client[0].ppp[4].ppp rcvdPkFromHl:count 47
attr interpolationmode none
attr source packetReceivedFromUpper
attr title "packets received from higher layer, count"
scalar scenario.client[0].ppp[4].ppp rcvdPkFromHl:sum(packetBytes) 1914
attr interpolationmode none
attr source packetReceivedFromUpper
attr title "packets received from higher layer, sum(packetBytes)"
scalar scenario.client[0].ppp[4].ppp passedUpPk:count 47
attr interpolationmode none
attr source packetSentToUpper
attr title "packets passed to higher layer, count"
scalar scenario.client[0].ppp[4].ppp passedUpPk:sum(packetBytes) 1908
attr interpolationmode none
attr source packetSentToUpper
attr title "packets passed to higher layer, sum(packetBytes)"
scalar scenario.client[0].ppp[4].ppp packetDropIncorrectlyReceived:count 0
attr interpolationmode none
attr source packetDropReasonIsIncorrectlyReceived(packetDropped)
attr title "packet drop: incorrectly received, count"
scalar scenario.client[0].ppp[4].ppp packetDropIncorrectlyReceived:sum(packetBytes) 0
attr interpolationmode none
attr source packetDropReasonIsIncorrectlyReceived(packetDropped)
attr title "packet drop: incorrectly received, sum(packetBytes)"
scalar scenario.client[0].ppp[4].ppp packetDropInterfaceDown:count 0
attr interpolationmode none
attr source packetDropReasonIsInterfaceDown(packetDropped)
attr title "packet drop: interface down, count"
scalar scenario.client[0].ppp[4].ppp packetDropInterfaceDown:sum(packetBytes) 0
attr interpolationmode none
attr source packetDropReasonIsInterfaceDown(packetDropped)
attr title "packet drop: interface down, sum(packetBytes)"
scalar scenario.client[0].ppp[4].ppp rxPkOk:count 47
attr interpolationmode none
attr source rxPkOk
attr title "packets received OK, count"
scalar scenario.client[0].ppp[4].ppp rxPkOk:sum(packetBytes) 2237
attr interpolationmode none
attr source rxPkOk
attr title "packets received OK, sum(packetBytes)"
scalar scenario.client[0].ppp[4].ppp transmissionState:timeavg 6.1165081637523e-007
attr interpolationmode sample-hold
attr source transmissionStateChanged
attr title "tx state, timeavg"
scalar scenario.client[0].ipv4.ip packetDropAddressResolutionFailed:count 0
attr interpolationmode none
attr source packetDropReasonIsAddressResolutionFailed(packetDropped)
attr title "packet drop: address resolution failed, count"
scalar scenario.client[0].ipv4.ip packetDropAddressResolutionFailed:sum(packetBytes) 0
attr interpolationmode none
attr source packetDropReasonIsAddressResolutionFailed(packetDropped)
attr title "packet drop: address resolution failed, sum(packetBytes)"
scalar scenario.client[0].ipv4.ip packetDropHopLimitReached:count 0
attr interpolationmode none
attr source packetDropReasonIsHopLimitReached(packetDropped)
attr title "packet drop: hop limit reached, count"
scalar scenario.client[0].ipv4.ip packetDropHopLimitReached:sum(packetBytes) 0
attr interpolationmode none
attr source packetDropReasonIsHopLimitReached(packetDropped)
attr title "packet drop: hop limit reached, sum(packetBytes)"
scalar scenario.client[0].ipv4.ip packetDropForwardingDisabled:count 0
attr interpolationmode none
attr source packetDropReasonIsForwardingDisabled(packetDropped)
attr title "packet drop: forwarding disabled, count"
scalar scenario.client[0].ipv4.ip packetDropForwardingDisabled:sum(packetBytes) 0
attr interpolationmode none
attr source packetDropReasonIsForwardingDisabled(packetDropped)
attr title "packet drop: forwarding disabled, sum(packetBytes)"
scalar scenario.client[0].ipv4.ip packetDropNoInterfaceFound:count 0
attr interpolationmode none
attr source packetDropReasonIsNoInterfaceFound(packetDropped)
attr title "packet drop: no interface found, count"
scalar scenario.client[0].ipv4.ip packetDropNoInterfaceFound:sum(packetBytes) 0
attr interpolationmode none
attr source packetDropReasonIsNoInterfaceFound(packetDropped)
attr title "packet drop: no interface found, sum(packetBytes)"
scalar scenario.client[0].ipv4.ip packetDropNoRouteFound:count 0
attr interpolationmode none
attr source packetDropReasonIsNoRouteFound(packetDropped)
attr title "packet drop: no route found, count"
scalar scenario.client[0].ipv4.ip packetDropNoRouteFound:sum(packetBytes) 0
attr interpolationmode none
attr source packetDropReasonIsNoRouteFound(packetDropped)
attr title "packet drop: no route found, sum(packetBytes)"
scalar scenario.client[0].ipv4.ip packetDropUndefined:count 0
attr interpolationmode none
attr source packetDropReasonIsUndefined(packetDropped)
attr title "packet drop: undefined, count"
scalar scenario.client[0].ipv4.ip packetDropUndefined:sum(packetBytes) 0
attr interpolationmode none
attr source packetDropReasonIsUndefined(packetDropped)
attr title "packet drop: undefined, sum(packetBytes)"
scalar scenario.client[0].ipv4.arp arpReplySent:count 0
attr source arpReplySent
attr title "ARP replies sent, count"
scalar scenario.client[0].ipv4.arp arpReplySent:sum(packetBytes) 0
attr source arpReplySent
attr title "ARP replies sent, sum(packetBytes)"
scalar scenario.client[0].ipv4.arp arpRequestSent:count 0
attr source arpRequestSent
attr title "ARP request sent, count"
scalar scenario.client[0].ipv4.arp arpRequestSent:sum(packetBytes) 0
attr source arpRequestSent
attr title "ARP request sent, sum(packetBytes)"
scalar scenario.client[0].ipv4.arp arpResolutionFailed:count 0
attr title "ARP failed resolutions, count"
scalar scenario.client[0].ipv4.arp arpResolutionCompleted:count 0
attr title "ARP completed resolutions, count"
scalar scenario.client[0].ipv4.arp arpResolutionInitiated:count 0
attr title "ARP initiated resolutions, count"
scalar scenario.client[0].udp packetReceived:count 0
attr interpolationmode none
attr source packetReceived
attr title "packets received, count"
scalar scenario.client[0].udp packetReceived:sum(packetBytes) 0
attr interpolationmode none
attr source packetReceived
attr title "packets received, sum(packetBytes)"
scalar scenario.client[0].udp packetSent:count 0
attr interpolationmode none
attr source packetSent
attr title "packets sent, count"
scalar scenario.client[0].udp packetSent:sum(packetBytes) 0
attr interpolationmode none
attr source packetSent
attr title "packets sent, sum(packetBytes)"
scalar scenario.client[0].udp passedUpPk:count 0
attr interpolationmode none
attr source packetSentToUpper
attr title "packets passed up, count"
scalar scenario.client[0].udp droppedPkWrongPort:count 0
attr interpolationmode none
attr source packetDropReasonIsNoPortFound(packetDropped)
attr title "packets dropped (wrong port), count"
scalar scenario.client[0].udp droppedPkBadChecksum:count 0
attr interpolationmode none
attr source packetDropReasonIsIncorrectlyReceived(packetDropped)
attr title "packets dropped (checksum error), count"
scalar scenario.client[1].lo[0].lo rcvdPkFromHl:count 0
attr interpolationmode none
attr source packetReceivedFromUpper
attr title "packets received from higher layer, count"
scalar scenario.client[1].lo[0].lo rcvdPkFromHl:sum(packetBytes) 0
attr interpolationmode none
attr source packetReceivedFromUpper
attr title "packets received from higher layer, sum(packetBytes)"
scalar scenario.client[1].lo[0].lo passedUpPk:count 0
attr interpolationmode none
attr source packetSentToUpper
attr title "packets passed to higher layer, count"
scalar scenario.client[1].lo[0].lo passedUpPk:sum(packetBytes) 0
attr interpolationmode none
attr source packetSentToUpper
attr title "packets passed to higher layer, sum(packetBytes)"
scalar scenario.client[1].ppp[0].ppp.queue packetPopped:count 211
attr interpolationmode none
attr title "packet popped, count"
scalar scenario.client[1].ppp[0].ppp.queue packetPopped:sum(packetBytes) 8555
attr interpolationmode none
attr title "packet popped, sum(packetBytes)"
statistic scenario.client[1].ppp[0].ppp.queue queueingTime:histogram
field count 211
field mean 2.1383886255924e-005
field stddev 8.7287917268174e-005
field min 0
field max 0.000376
field sum 0.004512
field sqrsum 1.696512e-006
attr interpolationmode none
attr source queueingTime(packetPopped)
attr title "queueing times, histogram"
attr unit s
bin	-inf	0
bin	0	199
bin	1e-005	0
bin	2e-005	0
bin	3e-005	0
bin	4e-005	0
bin	5e-005	0
bin	6e-005	0
bin	7e-005	0
bin	8e-005	0
bin	9e-005	0
bin	0.0001	0
bin	0.00011	0
bin	0.00012	0
bin	0.00013	0
bin	0.00014	0
bin	0.00015	0
bin	0.00016	0
bin	0.00017	0
bin	0.00018	0
bin	0.00019	0
bin	0.0002	0
bin	0.00021	0
bin	0.00022	0
bin	0.00023	0
bin	0.00024	0
bin	0.00025	0
bin	0.00026	0
bin	0.00027	0
bin	0.00028	0
bin	0.00029	0
bin	0.0003	0
bin	0.00031	0
bin	0.00032	0
bin	0.00033	0
bin	0.00034	0
bin	0.00035	0
bin	0.00036	0
bin	0.00037	12
bin	0.00038	0
bin	0.00039	0
bin	0.0004	0
bin	0.00041	0
bin	0.00042	0
bin	0.00043	0
bin	0.00044	0
bin	0.00045	0
bin	0.00046	0
bin	0.00047	0
scalar scenario.client[1].ppp[0].ppp.queue queueLength:max 1
attr interpolationmode sample-hold
attr source "count(packetPushed) - count(packetPopped) - count(packetRemoved) - count(packetDropped)"
attr title "queue length, max"
scalar scenario.client[1].ppp[0].ppp.queue queueLength:timeavg 1.5379896170875e-007
attr interpolationmode sample-hold
attr source "count(packetPushed) - count(packetPopped) - count(packetRemoved) - count(packetDropped)"
attr title "queue length, timeavg"
scalar scenario.client[1].ppp[0].ppp.queue packetPushed:count 211
attr interpolationmode none
attr title "packet pushed, count"
scalar scenario.client[1].ppp[0].ppp.queue packetPushed:sum(packetBytes) 8555
attr interpolationmode none
attr title "packet pushed, sum(packetBytes)"
scalar scenario.client[1].ppp[0].ppp.queue packetDropQueueOverflow:count 0
attr interpolationmode none
attr source packetDropReasonIsQueueOverflow(packetDropped)
attr title "packet drops: queue overflow, count"
scalar scenario.client[1].ppp[0].ppp.queue packetDropQueueOverflow:sum(packetBytes) 0
attr interpolationmode none
attr source packetDropReasonIsQueueOverflow(packetDropped)
attr title "packet drops: queue overflow, sum(packetBytes)"
scalar scenario.client[1].ppp[0].ppp.queue packetRemoved:count 0
attr interpolationmode none
attr title "packets removed, count"
scalar scenario.client[1].ppp[0].ppp.queue packetRemoved:sum(packetBytes) 0
attr interpolationmode none
attr title "packets removed, sum(packetBytes)"
scalar scenario.client[1].ppp[0].ppp txPk:count 211
attr interpolationmode none
attr source packetSentToLower
attr title "packets transmitted, count"
scalar scenario.client[1].ppp[0].ppp txPk:sum(packetBytes) 10032
attr interpolationmode none
attr source packetSentToLower
attr title "packets transmitted, sum(packetBytes)"
scalar scenario.client[1].ppp[0].ppp rcvdPkFromHl:count 211
attr interpolationmode none
attr source packetReceivedFromUpper
attr title "packets received from higher layer, count"
scalar scenario.client[1].ppp[0].ppp rcvdPkFromHl:sum(packetBytes) 8555
attr interpolationmode none
attr source packetReceivedFromUpper
attr title "packets received from higher layer, sum(packetBytes)"
scalar scenario.client[1].ppp[0].ppp passedUpPk:count 211
attr interpolationmode none
attr source packetSentToUpper
attr title "packets passed to higher layer, count"
scalar scenario.client[1].ppp[0].ppp passedUpPk:sum(packetBytes) 8554
attr interpolationmode none
attr source packetSentToUpper
attr title "packets passed to higher layer, sum(packetBytes)"
scalar scenario.client[1].ppp[0].ppp packetDropIncorrectlyReceived:count 0
attr interpolationmode none
attr source packetDropReasonIsIncorrectlyReceived(packetDropped)
attr title "packet drop: incorrectly received, count"
scalar scenario.client[1].ppp[0].ppp packetDropIncorrectlyReceived:sum(packetBytes) 0
attr interpolationmode none
attr source packetDropReasonIsIncorrectlyReceived(packetDropped)
attr title "packet drop: incorrectly received, sum(packetBytes)"
scalar scenario.client[1].ppp[0].ppp packetDropInterfaceDown:count 0
attr interpolationmode none
attr source packetDropReasonIsInterfaceDown(packetDropped)
attr title "packet drop: interface down, count"
scalar scenario.client[1].ppp[0].ppp packetDropInterfaceDown:sum(packetBytes) 0
attr interpolationmode none
attr source packetDropReasonIsInterfaceDown(packetDropped)
attr title "packet drop: interface down, sum(packetBytes)"
scalar scenario.client[1].ppp[0].ppp rxPkOk:count 211
attr interpolationmode none
attr source rxPkOk
attr title "packets received OK, count"
scalar scenario.client[1].ppp[0].ppp rxPkOk:sum(packetBytes) 10031
attr interpolationmode none
attr source rxPkOk
attr title "packets received OK, sum(packetBytes)"
scalar scenario.client[1].ppp[0].ppp transmissionState:timeavg 2.7356580427447e-006
attr interpolationmode sample-hold
attr source transmissionStateChanged
attr title "tx state, timeavg"
scalar scenario.client[1].ppp[1].ppp.queue packetPopped:count 204
attr interpolationmode none
attr title "packet popped, count"
scalar scenario.client[1].ppp[1].ppp.queue packetPopped:sum(packetBytes) 8271
attr interpolationmode none
attr title "packet popped, sum(packetBytes)"
statistic scenario.client[1].ppp[1].ppp.queue queueingTime:histogram
field count 204
field mean 2.3960784313725e-005
field stddev 9.2068931294583e-005
field min 0
field max 0.000376
field sum 0.004888
field sqrsum 1.837888e-006
attr interpolationmode none
attr source queueingTime(packetPopped)
attr title "queueing times, histogram"
attr unit s
bin	-inf	0
bin	0	191
bin	1e-005	0
bin	2e-005	0
bin	3e-005	0
bin	4e-005	0
bin	5e-005	0
bin	6e-005	0
bin	7e-005	0
bin	8e-005	0
bin	9e-005	0
bin	0.0001	0
bin	0.00011	0
bin	0.00012	0
bin	0.00013	0
bin	0.00014	0
bin	0.00015	0
bin	0.00016	0
bin	0.00017	0
bin	0.00018	0
bin	0.00019	0
bin	0.0002	0
bin	0.00021	0
bin	0.00022	0
bin	0.00023	0
bin	0.00024	0
bin	0.00025	0
bin	0.00026	0
bin	0.00027	0
bin	0.00028	0
bin	0.00029	0
bin	0.0003	0
bin	0.00031	0
bin	0.00032	0
bin	0.00033	0
bin	0.00034	0
bin	0.00035	0
bin	0.00036	0
bin	0.00037	13
bin	0.00038	0
bin	0.00039	0
bin	0.0004	0
bin	0.00041	0
bin	0.00042	0
bin	0.00043	0
bin	0.00044	0
bin	0.00045	0
bin	0.00046	0
bin	0.00047	0
scalar scenario.client[1].ppp[1].ppp.queue queueLength:max 1
attr interpolationmode sample-hold
attr source "count(packetPushed) - count(packetPopped) - count(packetRemoved) - count(packetDropped)"
attr title "queue length, max"
scalar scenario.client[1].ppp[1].ppp.queue queueLength:timeavg 1.6663117614368e-007
attr interpolationmode sample-hold
attr source "count(packetPushed) - count(packetPopped) - count(packetRemoved) - count(packetDropped)"
attr title "queue length, timeavg"
scalar scenario.client[1].ppp[1].ppp.queue packetPushed:count 204
attr interpolationmode none
attr title "packet pushed, count"
scalar scenario.client[1].ppp[1].ppp.queue packetPushed:sum(packetBytes) 8271
attr interpolationmode none
attr title "packet pushed, sum(packetBytes)"
scalar scenario.client[1].ppp[1].ppp.queue packetDropQueueOverflow:count 0
attr interpolationmode none
attr source packetDropReasonIsQueueOverflow(packetDropped)
attr title "packet drops: queue overflow, count"
scalar scenario.client[1].ppp[1].ppp.queue packetDropQueueOverflow:sum(packetBytes) 0
attr interpolationmode none
attr source packetDropReasonIsQueueOverflow(packetDropped)
attr title "packet drops: queue overflow, sum(packetBytes)"
scalar scenario.client[1].ppp[1].ppp.queue packetRemoved:count 0
attr interpolationmode none
attr title "packets removed, count"
scalar scenario.client[1].ppp[1].ppp.queue packetRemoved:sum(packetBytes) 0
attr interpolationmode none
attr title "packets removed, sum(packetBytes)"
scalar scenario.client[1].ppp[1].ppp txPk:count 204
attr interpolationmode none
attr source packetSentToLower
attr title "packets transmitted, count"
scalar scenario.client[1].ppp[1].ppp txPk:sum(packetBytes) 9699
attr interpolationmode none
attr source packetSentToLower
attr title "packets transmitted, sum(packetBytes)"
scalar scenario.client[1].ppp[1].ppp rcvdPkFromHl:count 204
attr interpolationmode none
attr source packetReceivedFromUpper
attr title "packets received from higher layer, count"
scalar scenario.client[1].ppp[1].ppp rcvdPkFromHl:sum(packetBytes) 8271
attr interpolationmode none
attr source packetReceivedFromUpper
attr title "packets received from higher layer, sum(packetBytes)"
scalar scenario.client[1].ppp[1].ppp passedUpPk:count 204
attr interpolationmode none
attr source packetSentToUpper
attr title "packets passed to higher layer, count"
scalar scenario.client[1].ppp[1].ppp passedUpPk:sum(packetBytes) 8271
attr interpolationmode none
attr source packetSentToUpper
attr title "packets passed to higher layer, sum(packetBytes)"
scalar scenario.client[1].ppp[1].ppp packetDropIncorrectlyReceived:count 0
attr interpolationmode none
attr source packetDropReasonIsIncorrectlyReceived(packetDropped)
attr title "packet drop: incorrectly received, count"
scalar scenario.client[1].ppp[1].ppp packetDropIncorrectlyReceived:sum(packetBytes) 0
attr interpolationmode none
attr source packetDropReasonIsIncorrectlyReceived(packetDropped)
attr title "packet drop: incorrectly received, sum(packetBytes)"
scalar scenario.client[1].ppp[1].ppp packetDropInterfaceDown:count 0
attr interpolationmode none
attr source packetDropReasonIsInterfaceDown(packetDropped)
attr title "packet drop: interface down, count"
scalar scenario.client[1].ppp[1].ppp packetDropInterfaceDown:sum(packetBytes) 0
attr interpolationmode none
attr source packetDropReasonIsInterfaceDown(packetDropped)
attr title "packet drop: interface down, sum(packetBytes)"
scalar scenario.client[1].ppp[1].ppp rxPkOk:count 204
attr interpolationmode none
attr source rxPkOk
attr title "packets received OK, count"
scalar scenario.client[1].ppp[1].ppp rxPkOk:sum(packetBytes) 9699
attr interpolationmode none
attr source rxPkOk
attr title "packets received OK, sum(packetBytes)"
scalar scenario.client[1].ppp[1].ppp transmissionState:timeavg 2.6448512117803e-006
attr interpolationmode sample-hold
attr source transmissionStateChanged
attr title "tx state, timeavg"
scalar scenario.client[1].ppp[2].ppp.queue packetPopped:count 204
attr interpolationmode none
attr title "packet popped, count"
scalar scenario.client[1].ppp[2].ppp.queue packetPopped:sum(packetBytes) 8269
attr interpolationmode none
attr title "packet popped, sum(packetBytes)"
statistic scenario.client[1].ppp[2].ppp.queue queueingTime:histogram
field count 204
field mean 1.6588235294118e-005
field stddev 7.7403981891334e-005
field min 0
field max 0.000376
field sum 0.003384
field sqrsum 1.272384e-006
attr interpolationmode none
attr source queueingTime(packetPopped)
attr title "queueing times, histogram"
attr unit s
bin	-inf	0
bin	0	195
bin	1e-005	0
bin	2e-005	0
bin	3e-005	0
bin	4e-005	0
bin	5e-005	0
bin	6e-005	0
bin	7e-005	0
bin	8e-005	0
bin	9e-005	0
bin	0.0001	0
bin	0.00011	0
bin	0.00012	0
bin	0.00013	0
bin	0.00014	0
bin	0.00015	0
bin	0.00016	0
bin	0.00017	0
bin	0.00018	0
bin	0.00019	0
bin	0.0002	0
bin	0.00021	0
bin	0.00022	0
bin	0.00023	0
bin	0.00024	0
bin	0.00025	0
bin	0.00026	0
bin	0.00027	0
bin	0.00028	0
bin	0.00029	0
bin	0.0003	0
bin	0.00031	0
bin	0.00032	0
bin	0.00033	0
bin	0.00034	0
bin	0.00035	0
bin	0.00036	0
bin	0.00037	9
bin	0.00038	0
bin	0.00039	0
bin	0.0004	0
bin	0.00041	0
bin	0.00042	0
bin	0.00043	0
bin	0.00044	0
bin	0.00045	0
bin	0.00046	0
bin	0.00047	0
scalar scenario.client[1].ppp[2].ppp.queue queueLength:max 1
attr interpolationmode sample-hold
attr source "count(packetPushed) - count(packetPopped) - count(packetRemoved) - count(packetDropped)"
attr title "queue length, max"
scalar scenario.client[1].ppp[2].ppp.queue queueLength:timeavg 1.1536200991899e-007
attr interpolationmode sample-hold
attr source "count(packetPushed) - count(packetPopped) - count(packetRemoved) - count(packetDropped)"
attr title "queue length, timeavg"
scalar scenario.client[1].ppp[2].ppp.queue packetPushed:count 204
attr interpolationmode none
attr title "packet pushed, count"
scalar scenario.client[1].ppp[2].ppp.queue packetPushed:sum(packetBytes) 8269
attr interpolationmode none
attr title "packet pushed, sum(packetBytes)"
scalar scenario.client[1].ppp[2].ppp.queue packetDropQueueOverflow:count 0
attr interpolationmode none
attr source packetDropReasonIsQueueOverflow(packetDropped)
attr title "packet drops: queue overflow, count"
scalar scenario.client[1].ppp[2].ppp.queue packetDropQueueOverflow:sum(packetBytes) 0
attr interpolationmode none
attr source packetDropReasonIsQueueOverflow(packetDropped)
attr title "packet drops: queue overflow, sum(packetBytes)"
scalar scenario.client[1].ppp[2].ppp.queue packetRemoved:count 0
attr interpolationmode none
attr title "packets removed, count"
scalar scenario.client[1].ppp[2].ppp.queue packetRemoved:sum(packetBytes) 0
attr interpolationmode none
attr title "packets removed, sum(packetBytes)"
scalar scenario.client[1].ppp[2].ppp txPk:count 204
attr interpolationmode none
attr source packetSentToLower
attr title "packets transmitted, count"
scalar scenario.client[1].ppp[2].ppp txPk:sum(packetBytes) 9697
attr interpolationmode none
attr source packetSentToLower
attr title "packets transmitted, sum(packetBytes)"
scalar scenario.client[1].ppp[2].ppp rcvdPkFromHl:count 204
attr interpolationmode none
attr source packetReceivedFromUpper
attr title "packets received from higher layer, count"
scalar scenario.client[1].ppp[2].ppp rcvdPkFromHl:sum(packetBytes) 8269
attr interpolationmode none
attr source packetReceivedFromUpper
attr title "packets received from higher layer, sum(packetBytes)"
scalar scenario.client[1].ppp[2].ppp passedUpPk:count 204
attr interpolationmode none
attr source packetSentToUpper
attr title "packets passed to higher layer, count"
scalar scenario.client[1].ppp[2].ppp passedUpPk:sum(packetBytes) 8273
attr interpolationmode none
attr source packetSentToUpper
attr title "packets passed to higher layer, sum(packetBytes)"
scalar scenario.client[1].ppp[2].ppp packetDropIncorrectlyReceived:count 0
attr interpolationmode none
attr source packetDropReasonIsIncorrectlyReceived(packetDropped)
attr title "packet drop: incorrectly received, count"
scalar scenario.client[1].ppp[2].ppp packetDropIncorrectlyReceived:sum(packetBytes) 0
attr interpolationmode none
attr source packetDropReasonIsIncorrectlyReceived(packetDropped)
attr title "packet drop: incorrectly received, sum(packetBytes)"
scalar scenario.client[1].ppp[2].ppp packetDropInterfaceDown:count 0
attr interpolationmode none
attr source packetDropReasonIsInterfaceDown(packetDropped)
attr title "packet drop: interface down, count"
scalar scenario.client[1].ppp[2].ppp packetDropInterfaceDown:sum(packetBytes) 0
attr interpolationmode none
attr source packetDropReasonIsInterfaceDown(packetDropped)
attr title "packet drop: interface down, sum(packetBytes)"
scalar scenario.client[1].ppp[2].ppp rxPkOk:count 204
attr interpolationmode none
attr source rxPkOk
attr title "packets received OK, count"
scalar scenario.client[1].ppp[2].ppp rxPkOk:sum(packetBytes) 9701
attr interpolationmode none
attr source rxPkOk
attr title "packets received OK, sum(packetBytes)"
scalar scenario.client[1].ppp[2].ppp transmissionState:timeavg 2.6443058254082e-006
attr interpolationmode sample-hold
attr source transmissionStateChanged
attr title "tx state, timeavg"
scalar scenario.client[1].ppp[3].ppp.queue packetPopped:count 387
attr interpolationmode none
attr title "packet popped, count"
scalar scenario.client[1].ppp[3].ppp.queue packetPopped:sum(packetBytes) 15673
attr interpolationmode none
attr title "packet popped, sum(packetBytes)"
statistic scenario.client[1].ppp[3].ppp.queue queueingTime:histogram
field count 387
field mean 0.00011075968992248
field stddev 0.00017162180262929
field min 0
field max 0.000376
field sum 0.042864
field sqrsum 1.6116864e-005
attr interpolationmode none
attr source queueingTime(packetPopped)
attr title "queueing times, histogram"
attr unit s
bin	-inf	0
bin	0	273
bin	1e-005	0
bin	2e-005	0
bin	3e-005	0
bin	4e-005	0
bin	5e-005	0
bin	6e-005	0
bin	7e-005	0
bin	8e-005	0
bin	9e-005	0
bin	0.0001	0
bin	0.00011	0
bin	0.00012	0
bin	0.00013	0
bin	0.00014	0
bin	0.00015	0
bin	0.00016	0
bin	0.00017	0
bin	0.00018	0
bin	0.00019	0
bin	0.0002	0
bin	0.00021	0
bin	0.00022	0
bin	0.00023	0
bin	0.00024	0
bin	0.00025	0
bin	0.00026	0
bin	0.00027	0
bin	0.00028	0
bin	0.00029	0
bin	0.0003	0
bin	0.00031	0
bin	0.00032	0
bin	0.00033	0
bin	0.00034	0
bin	0.00035	0
bin	0.00036	0
bin	0.00037	114
bin	0.00038	0
bin	0.00039	0
bin	0.0004	0
bin	0.00041	0
bin	0.00042	0
bin	0.00043	0
bin	0.00044	0
bin	0.00045	0
bin	0.00046	0
bin	0.00047	0
scalar scenario.client[1].ppp[3].ppp.queue queueLength:max 1
attr interpolationmode sample-hold
attr source "count(packetPushed) - count(packetPopped) - count(packetRemoved) - count(packetDropped)"
attr title "queue length, max"
scalar scenario.client[1].ppp[3].ppp.queue queueLength:timeavg 1.4611363315182e-006
attr interpolationmode sample-hold
attr source "count(packetPushed) - count(packetPopped) - count(packetRemoved) - count(packetDropped)"
attr title "queue length, timeavg"
scalar scenario.client[1].ppp[3].ppp.queue packetPushed:count 387
attr interpolationmode none
attr title "packet pushed, count"
scalar scenario.client[1].ppp[3].ppp.queue packetPushed:sum(packetBytes) 15673
attr interpolationmode none
attr title "packet pushed, sum(packetBytes)"
scalar scenario.client[1].ppp[3].ppp.queue packetDropQueueOverflow:count 0
attr interpolationmode none
attr source packetDropReasonIsQueueOverflow(packetDropped)
attr title "packet drops: queue overflow, count"
scalar scenario.client[1].ppp[3].ppp.queue packetDropQueueOverflow:sum(packetBytes) 0
attr interpolationmode none
attr source packetDropReasonIsQueueOverflow(packetDropped)
attr title "packet drops: queue overflow, sum(packetBytes)"
scalar scenario.client[1].ppp[3].ppp.queue packetRemoved:count 0
attr interpolationmode none
attr title "packets removed, count"
scalar scenario.client[1].ppp[3].ppp.queue packetRemoved:sum(packetBytes) 0
attr interpolationmode none
attr title "packets removed, sum(packetBytes)"
scalar scenario.client[1].ppp[3].ppp txPk:count 387
attr interpolationmode none
attr source packetSentToLower
attr title "packets transmitted, count"
scalar scenario.client[1].ppp[3].ppp txPk:sum(packetBytes) 18382
attr interpolationmode none
attr source packetSentToLower
attr title "packets transmitted, sum(packetBytes)"
scalar scenario.client[1].ppp[3].ppp rcvdPkFromHl:count 387
attr interpolationmode none
attr source packetReceivedFromUpper
attr title "packets received from higher layer, count"
scalar scenario.client[1].ppp[3].ppp rcvdPkFromHl:sum(packetBytes) 15673
attr interpolationmode none
attr source packetReceivedFromUpper
attr title "packets received from higher layer, sum(packetBytes)"
scalar scenario.client[1].ppp[3].ppp passedUpPk:count 387
attr interpolationmode none
attr source packetSentToUpper
attr title "packets passed to higher layer, count"
scalar scenario.client[1].ppp[3].ppp passedUpPk:sum(packetBytes) 15692
attr interpolationmode none
attr source packetSentToUpper
attr title "packets passed to higher layer, sum(packetBytes)"
scalar scenario.client[1].ppp[3].ppp packetDropIncorrectlyReceived:count 0
attr interpolationmode none
attr source packetDropReasonIsIncorrectlyReceived(packetDropped)
attr title "packet drop: incorrectly received, count"
scalar scenario.client[1].ppp[3].ppp packetDropIncorrectlyReceived:sum(packetBytes) 0
attr interpolationmode none
attr source packetDropReasonIsIncorrectlyReceived(packetDropped)
attr title "packet drop: incorrectly received, sum(packetBytes)"
scalar scenario.client[1].ppp[3].ppp packetDropInterfaceDown:count 0
attr interpolationmode none
attr source packetDropReasonIsInterfaceDown(packetDropped)
attr title "packet drop: interface down, count"
scalar scenario.client[1].ppp[3].ppp packetDropInterfaceDown:sum(packetBytes) 0
attr interpolationmode none
attr source packetDropReasonIsInterfaceDown(packetDropped)
attr title "packet drop: interface down, sum(packetBytes)"
scalar scenario.client[1].ppp[3].ppp rxPkOk:count 387
attr interpolationmode none
attr source rxPkOk
attr title "packets received OK, count"
scalar scenario.client[1].ppp[3].ppp rxPkOk:sum(packetBytes) 18401
attr interpolationmode none
attr source rxPkOk
attr title "packets received OK, sum(packetBytes)"
scalar scenario.client[1].ppp[3].ppp transmissionState:timeavg 5.0126461465044e-006
attr interpolationmode sample-hold
attr source transmissionStateChanged
attr title "tx state, timeavg"
scalar scenario.client[1].ppp[4].ppp.queue packetPopped:count 50
attr interpolationmode none
attr title "packet popped, count"
scalar scenario.client[1].ppp[4].ppp.queue packetPopped:sum(packetBytes) 2036
attr interpolationmode none
attr title "packet popped, sum(packetBytes)"
statistic scenario.client[1].ppp[4].ppp.queue queueingTime:histogram
field count 50
field mean 6.016e-005
field stddev 0.00013924334300579
field min 0
field max 0.000376
field sum 0.003008
field sqrsum 1.131008e-006
attr interpolationmode none
attr source queueingTime(packetPopped)
attr title "queueing times, histogram"
attr unit s
bin	-inf	0
bin	0	42
bin	1e-005	0
bin	2e-005	0
bin	3e-005	0
bin	4e-005	0
bin	5e-005	0
bin	6e-005	0
bin	7e-005	0
bin	8e-005	0
bin	9e-005	0
bin	0.0001	0
bin	0.00011	0
bin	0.00012	0
bin	0.00013	0
bin	0.00014	0
bin	0.00015	0
bin	0.00016	0
bin	0.00017	0
bin	0.00018	0
bin	0.00019	0
bin	0.0002	0
bin	0.00021	0
bin	0.00022	0
bin	0.00023	0
bin	0.00024	0
bin	0.00025	0
bin	0.00026	0
bin	0.00027	0
bin	0.00028	0
bin	0.00029	0
bin	0.0003	0
bin	0.00031	0
bin	0.00032	0
bin	0.00033	0
bin	0.00034	0
bin	0.00035	0
bin	0.00036	0
bin	0.00037	8
bin	0.00038	0
bin	0.00039	0
bin	0.0004	0
bin	0.00041	0
bin	0.00042	0
bin	0.00043	0
bin	0.00044	0
bin	0.00045	0
bin	0.00046	0
bin	0.00047	0
scalar scenario.client[1].ppp[4].ppp.queue queueLength:max 1
attr interpolationmode sample-hold
attr source "count(packetPushed) - count(packetPopped) - count(packetRemoved) - count(packetDropped)"
attr title "queue length, max"
scalar scenario.client[1].ppp[4].ppp.queue queueLength:timeavg 1.0254094953522e-007
attr interpolationmode sample-hold
attr source "count(packetPushed) - count(packetPopped) - count(packetRemoved) - count(packetDropped)"
attr title "queue length, timeavg"
scalar scenario.client[1].ppp[4].ppp.queue packetPushed:count 50
attr interpolationmode none
attr title "packet pushed, count"
scalar scenario.client[1].ppp[4].ppp.queue packetPushed:sum(packetBytes) 2036
attr interpolationmode none
attr title "packet pushed, sum(packetBytes)"
scalar scenario.client[1].ppp[4].ppp.queue packetDropQueueOverflow:count 0
attr interpolationmode none
attr source packetDropReasonIsQueueOverflow(packetDropped)
attr title "packet drops: queue overflow, count"
scalar scenario.client[1].ppp[4].ppp.queue packetDropQueueOverflow:sum(packetBytes) 0
attr interpolationmode none
attr source packetDropReasonIsQueueOverflow(packetDropped)
attr title "packet drops: queue overflow, sum(packetBytes)"
scalar scenario.client[1].ppp[4].ppp.queue packetRemoved:count 0
attr interpolationmode none
attr title "packets removed, count"
scalar scenario.client[1].ppp[4].ppp.queue packetRemoved:sum(packetBytes) 0
attr interpolationmode none
attr title "packets removed, sum(packetBytes)"
scalar scenario.client[1].ppp[4].ppp txPk:count 50
attr interpolationmode none
attr source packetSentToLower
attr title "packets transmitted, count"
scalar scenario.client[1].ppp[4].ppp txPk:sum(packetBytes) 2386
attr interpolationmode none
attr source packetSentToLower
attr title "packets transmitted, sum(packetBytes)"
scalar scenario.client[1].ppp[4].ppp rcvdPkFromHl:count 50
attr interpolationmode none
attr source packetReceivedFromUpper
attr title "packets received from higher layer, count"
scalar scenario.client[1].ppp[4].ppp rcvdPkFromHl:sum(packetBytes) 2036
attr interpolationmode none
attr source packetReceivedFromUpper
attr title "packets received from higher layer, sum(packetBytes)"
scalar scenario.client[1].ppp[4].ppp passedUpPk:count 50
attr interpolationmode none
attr source packetSentToUpper
attr title "packets passed to higher layer, count"
scalar scenario.client[1].ppp[4].ppp passedUpPk:sum(packetBytes) 2029
attr interpolationmode none
attr source packetSentToUpper
attr title "packets passed to higher layer, sum(packetBytes)"
scalar scenario.client[1].ppp[4].ppp packetDropIncorrectlyReceived:count 0
attr interpolationmode none
attr source packetDropReasonIsIncorrectlyReceived(packetDropped)
attr title "packet drop: incorrectly received, count"
scalar scenario.client[1].ppp[4].ppp packetDropIncorrectlyReceived:sum(packetBytes) 0
attr interpolationmode none
attr source packetDropReasonIsIncorrectlyReceived(packetDropped)
attr title "packet drop: incorrectly received, sum(packetBytes)"
scalar scenario.client[1].ppp[4].ppp packetDropInterfaceDown:count 0
attr interpolationmode none
attr source packetDropReasonIsInterfaceDown(packetDropped)
attr title "packet drop: interface down, count"
scalar scenario.client[1].ppp[4].ppp packetDropInterfaceDown:sum(packetBytes) 0
attr interpolationmode none
attr source packetDropReasonIsInterfaceDown(packetDropped)
attr title "packet drop: interface down, sum(packetBytes)"
scalar scenario.client[1].ppp[4].ppp rxPkOk:count 50
attr interpolationmode none
attr source rxPkOk
attr title "packets received OK, count"
scalar scenario.client[1].ppp[4].ppp rxPkOk:sum(packetBytes) 2379
attr interpolationmode none
attr source rxPkOk
attr title "packets received OK, sum(packetBytes)"
scalar scenario.client[1].ppp[4].ppp transmissionState:timeavg 6.5064594198452e-007
attr interpolationmode sample-hold
attr source transmissionStateChanged
attr title "tx state, timeavg"
scalar scenario.client[1].ipv4.ip packetDropAddressResolutionFailed:count 0
attr interpolationmode none
attr source packetDropReasonIsAddressResolutionFailed(packetDropped)
attr title "packet drop: address resolution failed, count"
scalar scenario.client[1].ipv4.ip packetDropAddressResolutionFailed:sum(packetBytes) 0
attr interpolationmode none
attr source packetDropReasonIsAddressResolutionFailed(packetDropped)
attr title "packet drop: address resolution failed, sum(packetBytes)"
scalar scenario.client[1].ipv4.ip packetDropHopLimitReached:count 0
attr interpolationmode none
attr source packetDropReasonIsHopLimitReached(packetDropped)
attr title "packet drop: hop limit reached, count"
scalar scenario.client[1].ipv4.ip packetDropHopLimitReached:sum(packetBytes) 0
attr interpolationmode none
attr source packetDropReasonIsHopLimitReached(packetDropped)
attr title "packet drop: hop limit reached, sum(packetBytes)"
scalar scenario.client[1].ipv4.ip packetDropForwardingDisabled:count 0
attr interpolationmode none
attr source packetDropReasonIsForwardingDisabled(packetDropped)
attr title "packet drop: forwarding disabled, count"
scalar scenario.client[1].ipv4.ip packetDropForwardingDisabled:sum(packetBytes) 0
attr interpolationmode none
attr source packetDropReasonIsForwardingDisabled(packetDropped)
attr title "packet drop: forwarding disabled, sum(packetBytes)"
scalar scenario.client[1].ipv4.ip packetDropNoInterfaceFound:count 0
attr interpolationmode none
attr source packetDropReasonIsNoInterfaceFound(packetDropped)
attr title "packet drop: no interface found, count"
scalar scenario.client[1].ipv4.ip packetDropNoInterfaceFound:sum(packetBytes) 0
attr interpolationmode none
attr source packetDropReasonIsNoInterfaceFound(packetDropped)
attr title "packet drop: no interface found, sum(packetBytes)"
scalar scenario.client[1].ipv4.ip packetDropNoRouteFound:count 0
attr interpolationmode none
attr source packetDropReasonIsNoRouteFound(packetDropped)
attr title "packet drop: no route found, count"
scalar scenario.client[1].ipv4.ip packetDropNoRouteFound:sum(packetBytes) 0
attr interpolationmode none
attr source packetDropReasonIsNoRouteFound(packetDropped)
attr title "packet drop: no route found, sum(packetBytes)"
scalar scenario.client[1].ipv4.ip packetDropUndefined:count 0
attr interpolationmode none
attr source packetDropReasonIsUndefined(packetDropped)
attr title "packet drop: undefined, count"
scalar scenario.client[1].ipv4.ip packetDropUndefined:sum(packetBytes) 0
attr interpolationmode none
attr source packetDropReasonIsUndefined(packetDropped)
attr title "packet drop: undefined, sum(packetBytes)"
scalar scenario.client[1].ipv4.arp arpReplySent:count 0
attr source arpReplySent
attr title "ARP replies sent, count"
scalar scenario.client[1].ipv4.arp arpReplySent:sum(packetBytes) 0
attr source arpReplySent
attr title "ARP replies sent, sum(packetBytes)"
scalar scenario.client[1].ipv4.arp arpRequestSent:count 0
attr source arpRequestSent
attr title "ARP request sent, count"
scalar scenario.client[1].ipv4.arp arpRequestSent:sum(packetBytes) 0
attr source arpRequestSent
attr title "ARP request sent, sum(packetBytes)"
scalar scenario.client[1].ipv4.arp arpResolutionFailed:count 0
attr title "ARP failed resolutions, count"
scalar scenario.client[1].ipv4.arp arpResolutionCompleted:count 0
attr title "ARP completed resolutions, count"
scalar scenario.client[1].ipv4.arp arpResolutionInitiated:count 0
attr title "ARP initiated resolutions, count"
scalar scenario.client[1].udp packetReceived:count 0
attr interpolationmode none
attr source packetReceived
attr title "packets received, count"
scalar scenario.client[1].udp packetReceived:sum(packetBytes) 0
attr interpolationmode none
attr source packetReceived
attr title "packets received, sum(packetBytes)"
scalar scenario.client[1].udp packetSent:count 0
attr interpolationmode none
attr source packetSent
attr title "packets sent, count"
scalar scenario.client[1].udp packetSent:sum(packetBytes) 0
attr interpolationmode none
attr source packetSent
attr title "packets sent, sum(packetBytes)"
scalar scenario.client[1].udp passedUpPk:count 0
attr interpolationmode none
attr source packetSentToUpper
attr title "packets passed up, count"
scalar scenario.client[1].udp droppedPkWrongPort:count 0
attr interpolationmode none
attr source packetDropReasonIsNoPortFound(packetDropped)
attr title "packets dropped (wrong port), count"
scalar scenario.client[1].udp droppedPkBadChecksum:count 0
attr interpolationmode none
attr source packetDropReasonIsIncorrectlyReceived(packetDropped)
attr title "packets dropped (checksum error), count"
scalar scenario.client[2].lo[0].lo rcvdPkFromHl:count 0
attr interpolationmode none
attr source packetReceivedFromUpper
attr title "packets received from higher layer, count"
scalar scenario.client[2].lo[0].lo rcvdPkFromHl:sum(packetBytes) 0
attr interpolationmode none
attr source packetReceivedFromUpper
attr title "packets received from higher layer, sum(packetBytes)"
scalar scenario.client[2].lo[0].lo passedUpPk:count 0
attr interpolationmode none
attr source packetSentToUpper
attr title "packets passed to higher layer, count"
scalar scenario.client[2].lo[0].lo passedUpPk:sum(packetBytes) 0
attr interpolationmode none
attr source packetSentToUpper
attr title "packets passed to higher layer, sum(packetBytes)"
scalar scenario.client[2].ppp[0].ppp.queue packetPopped:count 211
attr interpolationmode none
attr title "packet popped, count"
scalar scenario.client[2].ppp[0].ppp.queue packetPopped:sum(packetBytes) 8555
attr interpolationmode none
attr title "packet popped, sum(packetBytes)"
statistic scenario.client[2].ppp[0].ppp.queue queueingTime:histogram
field count 211
field mean 2.1383886255924e-005
field stddev 8.7287917268174e-005
field min 0
field max 0.000376
field sum 0.004512
field sqrsum 1.696512e-006
attr interpolationmode none
attr source queueingTime(packetPopped)
attr title "queueing times, histogram"
attr unit s
bin	-inf	0
bin	0	199
bin	1e-005	0
bin	2e-005	0
bin	3e-005	0
bin	4e-005	0
bin	5e-005	0
bin	6e-005	0
bin	7e-005	0
bin	8e-005	0
bin	9e-005	0
bin	0.0001	0
bin	0.00011	0
bin	0.00012	0
bin	0.00013	0
bin	0.00014	0
bin	0.00015	0
bin	0.00016	0
bin	0.00017	0
bin	0.00018	0
bin	0.00019	0
bin	0.0002	0
bin	0.00021	0
bin	0.00022	0
bin	0.00023	0
bin	0.00024	0
bin	0.00025	0
bin	0.00026	0
bin	0.00027	0
bin	0.00028	0
bin	0.00029	0
bin	0.0003	0
bin	0.00031	0
bin	0.00032	0
bin	0.00033	0
bin	0.00034	0
bin	0.00035	0
bin	0.00036	0
bin	0.00037	12
bin	0.00038	0
bin	0.00039	0
bin	0.0004	0
bin	0.00041	0
bin	0.00042	0
bin	0.00043	0
bin	0.00044	0
bin	0.00045	0
bin	0.00046	0
bin	0.00047	0
scalar scenario.client[2].ppp[0].ppp.queue queueLength:max 1
attr interpolationmode sample-hold
attr source "count(packetPushed) - count(packetPopped) - count(packetRemoved) - count(packetDropped)"
attr title "queue length, max"
scalar scenario.client[2].ppp[0].ppp.queue queueLength:timeavg 1.5380114591647e-007
attr interpolationmode sample-hold
attr source "count(packetPushed) - count(packetPopped) - count(packetRemoved) - count(packetDropped)"
attr title "queue length, timeavg"
scalar scenario.client[2].ppp[0].ppp.queue packetPushed:count 211
attr interpolationmode none
attr title "packet pushed, count"
scalar scenario.client[2].ppp[0].ppp.queue packetPushed:sum(packetBytes) 8555
attr interpolationmode none
attr title "packet pushed, sum(packetBytes)"
scalar scenario.client[2].ppp[0].ppp.queue packetDropQueueOverflow:count 0
attr interpolationmode none
attr source packetDropReasonIsQueueOverflow(packetDropped)
attr title "packet drops: queue overflow, count"
scalar scenario.client[2].ppp[0].ppp.queue packetDropQueueOverflow:sum(packetBytes) 0
attr interpolationmode none
attr source packetDropReasonIsQueueOverflow(packetDropped)
attr title "packet drops: queue overflow, sum(packetBytes)"
scalar scenario.client[2].ppp[0].ppp.queue packetRemoved:count 0
attr interpolationmode none
attr title "packets removed, count"
scalar scenario.client[2].ppp[0].ppp.queue packetRemoved:sum(packetBytes) 0
attr interpolationmode none
attr title "packets removed, sum(packetBytes)"
scalar scenario.client[2].ppp[0].ppp txPk:count 211
attr interpolationmode none
attr source packetSentToLower
attr title "packets transmitted, count"
scalar scenario.client[2].ppp[0].ppp txPk:sum(packetBytes) 10032
attr interpolationmode none
attr source packetSentToLower
attr title "packets transmitted, sum(packetBytes)"
scalar scenario.client[2].ppp[0].ppp rcvdPkFromHl:count 211
attr interpolationmode none
attr source packetReceivedFromUpper
attr title "packets received from higher layer, count"
scalar scenario.client[2].ppp[0].ppp rcvdPkFromHl:sum(packetBytes) 8555
attr interpolationmode none
attr source packetReceivedFromUpper
attr title "packets received from higher layer, sum(packetBytes)"
scalar scenario.client[2].ppp[0].ppp passedUpPk:count 211
attr interpolationmode none
attr source packetSentToUpper
attr title "packets passed to higher layer, count"
scalar scenario.client[2].ppp[0].ppp passedUpPk:sum(packetBytes) 8554
attr interpolationmode none
attr source packetSentToUpper
attr title "packets passed to higher layer, sum(packetBytes)"
scalar scenario.client[2].ppp[0].ppp packetDropIncorrectlyReceived:count 0
attr interpolationmode none
attr source packetDropReasonIsIncorrectlyReceived(packetDropped)
attr title "packet drop: incorrectly received, count"
scalar scenario.client[2].ppp[0].ppp packetDropIncorrectlyReceived:sum(packetBytes) 0
attr interpolationmode none
attr source packetDropReasonIsIncorrectlyReceived(packetDropped)
attr title "packet drop: incorrectly received, sum(packetBytes)"
scalar scenario.client[2].ppp[0].ppp packetDropInterfaceDown:count 0
attr interpolationmode none
attr source packetDropReasonIsInterfaceDown(packetDropped)
attr title "packet drop: interface down, count"
scalar scenario.client[2].ppp[0].ppp packetDropInterfaceDown:sum(packetBytes) 0
attr interpolationmode none
attr source packetDropReasonIsInterfaceDown(packetDropped)
attr title "packet drop: interface down, sum(packetBytes)"
scalar scenario.client[2].ppp[0].ppp rxPkOk:count 211
attr interpolationmode none
attr source rxPkOk
attr title "packets received OK, count"
scalar scenario.client[2].ppp[0].ppp rxPkOk:sum(packetBytes) 10031
attr interpolationmode none
attr source rxPkOk
attr title "packets received OK, sum(packetBytes)"
scalar scenario.client[2].ppp[0].ppp transmissionState:timeavg 2.7356580427447e-006
attr interpolationmode sample-hold
attr source transmissionStateChanged
attr title "tx state, timeavg"
scalar scenario.client[2].ppp[1].ppp.queue packetPopped:count 204
attr interpolationmode none
attr title "packet popped, count"
scalar scenario.client[2].ppp[1].ppp.queue packetPopped:sum(packetBytes) 8271
attr interpolationmode none
attr title "packet popped, sum(packetBytes)"
statistic scenario.client[2].ppp[1].ppp.queue queueingTime:histogram
field count 204
field mean 2.3960784313725e-005
field stddev 9.2068931294583e-005
field min 0
field max 0.000376
field sum 0.004888
field sqrsum 1.837888e-006
attr interpolationmode none
attr source queueingTime(packetPopped)
attr title "queueing times, histogram"
attr unit s
bin	-inf	0
bin	0	191
bin	1e-005	0
bin	2e-005	0
bin	3e-005	0
bin	4e-005	0
bin	5e-005	0
bin	6e-005	0
bin	7e-005	0
bin	8e-005	0
bin	9e-005	0
bin	0.0001	0
bin	0.00011	0
bin	0.00012	0
bin	0.00013	0
bin	0.00014	0
bin	0.00015	0
bin	0.00016	0
bin	0.00017	0
bin	0.00018	0
bin	0.00019	0
bin	0.0002	0
bin	0.00021	0
bin	0.00022	0
bin	0.00023	0
bin	0.00024	0
bin	0.00025	0
bin	0.00026	0
bin	0.00027	0
bin	0.00028	0
bin	0.00029	0
bin	0.0003	0
bin	0.00031	0
bin	0.00032	0
bin	0.00033	0
bin	0.00034	0
bin	0.00035	0
bin	0.00036	0
bin	0.00037	13
bin	0.00038	0
bin	0.00039	0
bin	0.0004	0
bin	0.00041	0
bin	0.00042	0
bin	0.00043	0
bin	0.00044	0
bin	0.00045	0
bin	0.00046	0
bin	0.00047	0
scalar scenario.client[2].ppp[1].ppp.queue queueLength:max 1
attr interpolationmode sample-hold
attr source "count(packetPushed) - count(packetPopped) - count(packetRemoved) - count(packetDropped)"
attr title "queue length, max"
scalar scenario.client[2].ppp[1].ppp.queue queueLength:timeavg 1.6663118130151e-007
attr interpolationmode sample-hold
attr source "count(packetPushed) - count(packetPopped) - count(packetRemoved) - count(packetDropped)"
attr title "queue length, timeavg"
scalar scenario.client[2].ppp[1].ppp.queue packetPushed:count 204
attr interpolationmode none
attr title "packet pushed, count"
scalar scenario.client[2].ppp[1].ppp.queue packetPushed:sum(packetBytes) 8271
attr interpolationmode none
attr title "packet pushed, sum(packetBytes)"
scalar scenario.client[2].ppp[1].ppp.queue packetDropQueueOverflow:count 0
attr interpolationmode none
attr source packetDropReasonIsQueueOverflow(packetDropped)
attr title "packet drops: queue overflow, count"
scalar scenario.client[2].ppp[1].ppp.queue packetDropQueueOverflow:sum(packetBytes) 0
attr interpolationmode none
attr source packetDropReasonIsQueueOverflow(packetDropped)
attr title "packet drops: queue overflow, sum(packetBytes)"
scalar scenario.client[2].ppp[1].ppp.queue packetRemoved:count 0
attr interpolationmode none
attr title "packets removed, count"
scalar scenario.client[2].ppp[1].ppp.queue packetRemoved:sum(packetBytes) 0
attr interpolationmode none
attr title "packets removed, sum(packetBytes)"
scalar scenario.client[2].ppp[1].ppp txPk:count 204
attr interpolationmode none
attr source packetSentToLower
attr title "packets transmitted, count"
scalar scenario.client[2].ppp[1].ppp txPk:sum(packetBytes) 9699
attr interpolationmode none
attr source packetSentToLower
attr title "packets transmitted, sum(packetBytes)"
scalar scenario.client[2].ppp[1].ppp rcvdPkFromHl:count 204
attr interpolationmode none
attr source packetReceivedFromUpper
attr title "packets received from higher layer, count"
scalar scenario.client[2].ppp[1].ppp rcvdPkFromHl:sum(packetBytes) 8271
attr interpolationmode none
attr source packetReceivedFromUpper
attr title "packets received from higher layer, sum(packetBytes)"
scalar scenario.client[2].ppp[1].ppp passedUpPk:count 204
attr interpolationmode none
attr source packetSentToUpper
attr title "packets passed to higher layer, count"
scalar scenario.client[2].ppp[1].ppp passedUpPk:sum(packetBytes) 8271
attr interpolationmode none
attr source packetSentToUpper
attr title "packets passed to higher layer, sum(packetBytes)"
scalar scenario.client[2].ppp[1].ppp packetDropIncorrectlyReceived:count 0
attr interpolationmode none
attr source packetDropReasonIsIncorrectlyReceived(packetDropped)
attr title "packet drop: incorrectly received, count"
scalar scenario.client[2].ppp[1].ppp packetDropIncorrectlyReceived:sum(packetBytes) 0
attr interpolationmode none
attr source packetDropReasonIsIncorrectlyReceived(packetDropped)
attr title "packet drop: incorrectly received, sum(packetBytes)"
scalar scenario.client[2].ppp[1].ppp packetDropInterfaceDown:count 0
attr interpolationmode none
attr source packetDropReasonIsInterfaceDown(packetDropped)
attr title "packet drop: interface down, count"
scalar scenario.client[2].ppp[1].ppp packetDropInterfaceDown:sum(packetBytes) 0
attr interpolationmode none
attr source packetDropReasonIsInterfaceDown(packetDropped)
attr title "packet drop: interface down, sum(packetBytes)"
scalar scenario.client[2].ppp[1].ppp rxPkOk:count 204
attr interpolationmode none
attr source rxPkOk
attr title "packets received OK, count"
scalar scenario.client[2].ppp[1].ppp rxPkOk:sum(packetBytes) 9699
attr interpolationmode none
attr source rxPkOk
attr title "packets received OK, sum(packetBytes)"
scalar scenario.client[2].ppp[1].ppp transmissionState:timeavg 2.6448512117803e-006
attr interpolationmode sample-hold
attr source transmissionStateChanged
attr title "tx state, timeavg"
scalar scenario.client[2].ppp[2].ppp.queue packetPopped:count 204
attr interpolationmode none
attr title "packet popped, count"
scalar scenario.client[2].ppp[2].ppp.queue packetPopped:sum(packetBytes) 8269
attr interpolationmode none
attr title "packet popped, sum(packetBytes)"
statistic scenario.client[2].ppp[2].ppp.queue queueingTime:histogram
field count 204
field mean 1.6588235294118e-005
field stddev 7.7403981891334e-005
field min 0
field max 0.000376
field sum 0.003384
field sqrsum 1.272384e-006
attr interpolationmode none
attr source queueingTime(packetPopped)
attr title "queueing times, histogram"
attr unit s
bin	-inf	0
bin	0	195
bin	1e-005	0
bin	2e-005	0
bin	3e-005	0
bin	4e-005	0
bin	5e-005	0
bin	6e-005	0
bin	7e-005	0
bin	8e-005	0
bin	9e-005	0
bin	0.0001	0
bin	0.00011	0
bin	0.00012	0
bin	0.00013	0
bin	0.00014	0
bin	0.00015	0
bin	0.00016	0
bin	0.00017	0
bin	0.00018	0
bin	0.00019	0
bin	0.0002	0
bin	0.00021	0
bin	0.00022	0
bin	0.00023	0
bin	0.00024	0
bin	0.00025	0
bin	0.00026	0
bin	0.00027	0
bin	0.00028	0
bin	0.00029	0
bin	0.0003	0
bin	0.00031	0
bin	0.00032	0
bin	0.00033	0
bin	0.00034	0
bin	0.00035	0
bin	0.00036	0
bin	0.00037	9
bin	0.00038	0
bin	0.00039	0
bin	0.0004	0
bin	0.00041	0
bin	0.00042	0
bin	0.00043	0
bin	0.00044	0
bin	0.00045	0
bin	0.00046	0
bin	0.00047	0
scalar scenario.client[2].ppp[2].ppp.queue queueLength:max 1
attr interpolationmode sample-hold
attr source "count(packetPushed) - count(packetPopped) - count(packetRemoved) - count(packetDropped)"
attr title "queue length, max"
scalar scenario.client[2].ppp[2].ppp.queue queueLength:timeavg 1.1536333431005e-007
attr interpolationmode sample-hold
attr source "count(packetPushed) - count(packetPopped) - count(packetRemoved) - count(packetDropped)"
attr title "queue length, timeavg"
scalar scenario.client[2].ppp[2].ppp.queue packetPushed:count 204
attr interpolationmode none
attr title "packet pushed, count"
scalar scenario.client[2].ppp[2].ppp.queue packetPushed:sum(packetBytes) 8269
attr interpolationmode none
attr title "packet pushed, sum(packetBytes)"
scalar scenario.client[2].ppp[2].ppp.queue packetDropQueueOverflow:count 0
attr interpolationmode none
attr source packetDropReasonIsQueueOverflow(packetDropped)
attr title "packet drops: queue overflow, count"
scalar scenario.client[2].ppp[2].ppp.queue packetDropQueueOverflow:sum(packetBytes) 0
attr interpolationmode none
attr source packetDropReasonIsQueueOverflow(packetDropped)
attr title "packet drops: queue overflow, sum(packetBytes)"
scalar scenario.client[2].ppp[2].ppp.queue packetRemoved:count 0
attr interpolationmode none
attr title "packets removed, count"
scalar scenario.client[2].ppp[2].ppp.queue packetRemoved:sum(packetBytes) 0
attr interpolationmode none
attr title "packets removed, sum(packetBytes)"
scalar scenario.client[2].ppp[2].ppp txPk:count 204
attr interpolationmode none
attr source packetSentToLower
attr title "packets transmitted, count"
scalar scenario.client[2].ppp[2].ppp txPk:sum(packetBytes) 9697
attr interpolationmode none
attr source packetSentToLower
attr title "packets transmitted, sum(packetBytes)"
scalar scenario.client[2].ppp[2].ppp rcvdPkFromHl:count 204
attr interpolationmode none
attr source packetReceivedFromUpper
attr title "packets received from higher layer, count"
scalar scenario.client[2].ppp[2].ppp rcvdPkFromHl:sum(packetBytes) 8269
attr interpolationmode none
attr source packetReceivedFromUpper
attr title "packets received from higher layer, sum(packetBytes)"
scalar scenario.client[2].ppp[2].ppp passedUpPk:count 204
attr interpolationmode none
attr source packetSentToUpper
attr title "packets passed to higher layer, count"
scalar scenario.client[2].ppp[2].ppp passedUpPk:sum(packetBytes) 8273
attr interpolationmode none
attr source packetSentToUpper
attr title "packets passed to higher layer, sum(packetBytes)"
scalar scenario.client[2].ppp[2].ppp packetDropIncorrectlyReceived:count 0
attr interpolationmode none
attr source packetDropReasonIsIncorrectlyReceived(packetDropped)
attr title "packet drop: incorrectly received, count"
scalar scenario.client[2].ppp[2].ppp packetDropIncorrectlyReceived:sum(packetBytes) 0
attr interpolationmode none
attr source packetDropReasonIsIncorrectlyReceived(packetDropped)
attr title "packet drop: incorrectly received, sum(packetBytes)"
scalar scenario.client[2].ppp[2].ppp packetDropInterfaceDown:count 0
attr interpolationmode none
attr source packetDropReasonIsInterfaceDown(packetDropped)
attr title "packet drop: interface down, count"
scalar scenario.client[2].ppp[2].ppp packetDropInterfaceDown:sum(packetBytes) 0
attr interpolationmode none
attr source packetDropReasonIsInterfaceDown(packetDropped)
attr title "packet drop: interface down, sum(packetBytes)"
scalar scenario.client[2].ppp[2].ppp rxPkOk:count 204
[...]
field count 50
field mean 6.768e-005
field stddev 0.00014592106336884
field min 0
field max 0.000376
field sum 0.003384
field sqrsum 1.272384e-006
attr interpolationmode none
attr source queueingTime(packetPopped)
attr title "queueing times, histogram"
attr unit s
bin	-inf	0
bin	0	41
bin	1e-005	0
bin	2e-005	0
bin	3e-005	0
bin	4e-005	0
bin	5e-005	0
bin	6e-005	0
bin	7e-005	0
bin	8e-005	0
bin	9e-005	0
bin	0.0001	0
bin	0.00011	0
bin	0.00012	0
bin	0.00013	0
bin	0.00014	0
bin	0.00015	0
bin	0.00016	0
bin	0.00017	0
bin	0.00018	0
bin	0.00019	0
bin	0.0002	0
bin	0.00021	0
bin	0.00022	0
bin	0.00023	0
bin	0.00024	0
bin	0.00025	0
bin	0.00026	0
bin	0.00027	0
bin	0.00028	0
bin	0.00029	0
bin	0.0003	0
bin	0.00031	0
bin	0.00032	0
bin	0.00033	0
bin	0.00034	0
bin	0.00035	0
bin	0.00036	0
bin	0.00037	9
bin	0.00038	0
bin	0.00039	0
bin	0.0004	0
bin	0.00041	0
bin	0.00042	0
bin	0.00043	0
bin	0.00044	0
bin	0.00045	0
bin	0.00046	0
bin	0.00047	0
scalar scenario.client[5].ppp[2].ppp.queue queueLength:max 1
attr interpolationmode sample-hold
attr source "count(packetPushed) - count(packetPopped) - count(packetRemoved) - count(packetDropped)"
attr title "queue length, max"
scalar scenario.client[5].ppp[2].ppp.queue queueLength:timeavg 1.1535995980241e-007
attr interpolationmode sample-hold
attr source "count(packetPushed) - count(packetPopped) - count(packetRemoved) - count(packetDropped)"
attr title "queue length, timeavg"
scalar scenario.client[5].ppp[2].ppp.queue packetPushed:count 50
attr interpolationmode none
attr title "packet pushed, count"
scalar scenario.client[5].ppp[2].ppp.queue packetPushed:sum(packetBytes) 2029
attr interpolationmode none
attr title "packet pushed, sum(packetBytes)"
scalar scenario.client[5].ppp[2].ppp.queue packetDropQueueOverflow:count 0
attr interpolationmode none
attr source packetDropReasonIsQueueOverflow(packetDropped)
attr title "packet drops: queue overflow, count"
scalar scenario.client[5].ppp[2].ppp.queue packetDropQueueOverflow:sum(packetBytes) 0
attr interpolationmode none
attr source packetDropReasonIsQueueOverflow(packetDropped)
attr title "packet drops: queue overflow, sum(packetBytes)"
scalar scenario.client[5].ppp[2].ppp.queue packetRemoved:count 0
attr interpolationmode none
attr title "packets removed, count"
scalar scenario.client[5].ppp[2].ppp.queue packetRemoved:sum(packetBytes) 0
attr interpolationmode none
attr title "packets removed, sum(packetBytes)"
scalar scenario.client[5].ppp[2].ppp txPk:count 50
attr interpolationmode none
attr source packetSentToLower
attr title "packets transmitted, count"
scalar scenario.client[5].ppp[2].ppp txPk:sum(packetBytes) 2379
attr interpolationmode none
attr source packetSentToLower
attr title "packets transmitted, sum(packetBytes)"
scalar scenario.client[5].ppp[2].ppp rcvdPkFromHl:count 50
attr interpolationmode none
attr source packetReceivedFromUpper
attr title "packets received from higher layer, count"
scalar scenario.client[5].ppp[2].ppp rcvdPkFromHl:sum(packetBytes) 2029
attr interpolationmode none
attr source packetReceivedFromUpper
attr title "packets received from higher layer, sum(packetBytes)"
scalar scenario.client[5].ppp[2].ppp passedUpPk:count 50
attr interpolationmode none
attr source packetSentToUpper
attr title "packets passed to higher layer, count"
scalar scenario.client[5].ppp[2].ppp passedUpPk:sum(packetBytes) 2036
attr interpolationmode none
attr source packetSentToUpper
attr title "packets passed to higher layer, sum(packetBytes)"
scalar scenario.client[5].ppp[2].ppp packetDropIncorrectlyReceived:count 0
attr interpolationmode none
attr source packetDropReasonIsIncorrectlyReceived(packetDropped)
attr title "packet drop: incorrectly received, count"
scalar scenario.client[5].ppp[2].ppp packetDropIncorrectlyReceived:sum(packetBytes) 0
attr interpolationmode none
attr source packetDropReasonIsIncorrectlyReceived(packetDropped)
attr title "packet drop: incorrectly received, sum(packetBytes)"
scalar scenario.client[5].ppp[2].ppp packetDropInterfaceDown:count 0
attr interpolationmode none
attr source packetDropReasonIsInterfaceDown(packetDropped)
attr title "packet drop: interface down, count"
scalar scenario.client[5].ppp[2].ppp packetDropInterfaceDown:sum(packetBytes) 0
attr interpolationmode none
attr source packetDropReasonIsInterfaceDown(packetDropped)
attr title "packet drop: interface down, sum(packetBytes)"
scalar scenario.client[5].ppp[2].ppp rxPkOk:count 50
attr interpolationmode none
attr source rxPkOk
attr title "packets received OK, count"
scalar scenario.client[5].ppp[2].ppp rxPkOk:sum(packetBytes) 2386
attr interpolationmode none
attr source rxPkOk
attr title "packets received OK, sum(packetBytes)"
scalar scenario.client[5].ppp[2].ppp transmissionState:timeavg 6.4873708968197e-007
attr interpolationmode sample-hold
attr source transmissionStateChanged
attr title "tx state, timeavg"
scalar scenario.client[5].ppp[3].ppp.queue packetPopped:count 46
attr interpolationmode none
attr title "packet popped, count"
scalar scenario.client[5].ppp[3].ppp.queue packetPopped:sum(packetBytes) 1867
attr interpolationmode none
attr title "packet popped, sum(packetBytes)"
statistic scenario.client[5].ppp[3].ppp.queue queueingTime:histogram
field count 46
field mean 5.7217391304348e-005
field stddev 0.00013654757624986
field min 0
field max 0.000376
field sum 0.002632
field sqrsum 9.89632e-007
attr interpolationmode none
attr source queueingTime(packetPopped)
attr title "queueing times, histogram"
attr unit s
bin	-inf	0
bin	0	39
bin	1e-005	0
bin	2e-005	0
bin	3e-005	0
bin	4e-005	0
bin	5e-005	0
bin	6e-005	0
bin	7e-005	0
bin	8e-005	0
bin	9e-005	0
bin	0.0001	0
bin	0.00011	0
bin	0.00012	0
bin	0.00013	0
bin	0.00014	0
bin	0.00015	0
bin	0.00016	0
bin	0.00017	0
bin	0.00018	0
bin	0.00019	0
bin	0.0002	0
bin	0.00021	0
bin	0.00022	0
bin	0.00023	0
bin	0.00024	0
bin	0.00025	0
bin	0.00026	0
bin	0.00027	0
bin	0.00028	0
bin	0.00029	0
bin	0.0003	0
bin	0.00031	0
bin	0.00032	0
bin	0.00033	0
bin	0.00034	0
bin	0.00035	0
bin	0.00036	0
bin	0.00037	7
bin	0.00038	0
bin	0.00039	0
bin	0.0004	0
bin	0.00041	0
bin	0.00042	0
bin	0.00043	0
bin	0.00044	0
bin	0.00045	0
bin	0.00046	0
bin	0.00047	0
scalar scenario.client[5].ppp[3].ppp.queue queueLength:max 1
attr interpolationmode sample-hold
attr source "count(packetPushed) - count(packetPopped) - count(packetRemoved) - count(packetDropped)"
attr title "queue length, max"
scalar scenario.client[5].ppp[3].ppp.queue queueLength:timeavg 8.9725530450157e-008
attr interpolationmode sample-hold
attr source "count(packetPushed) - count(packetPopped) - count(packetRemoved) - count(packetDropped)"
attr title "queue length, timeavg"
scalar scenario.client[5].ppp[3].ppp.queue packetPushed:count 46
attr interpolationmode none
attr title "packet pushed, count"
scalar scenario.client[5].ppp[3].ppp.queue packetPushed:sum(packetBytes) 1867
attr interpolationmode none
attr title "packet pushed, sum(packetBytes)"
scalar scenario.client[5].ppp[3].ppp.queue packetDropQueueOverflow:count 0
attr interpolationmode none
attr source packetDropReasonIsQueueOverflow(packetDropped)
attr title "packet drops: queue overflow, count"
scalar scenario.client[5].ppp[3].ppp.queue packetDropQueueOverflow:sum(packetBytes) 0
attr interpolationmode none
attr source packetDropReasonIsQueueOverflow(packetDropped)
attr title "packet drops: queue overflow, sum(packetBytes)"
scalar scenario.client[5].ppp[3].ppp.queue packetRemoved:count 0
attr interpolationmode none
attr title "packets removed, count"
scalar scenario.client[5].ppp[3].ppp.queue packetRemoved:sum(packetBytes) 0
attr interpolationmode none
attr title "packets removed, sum(packetBytes)"
scalar scenario.client[5].ppp[3].ppp txPk:count 46
attr interpolationmode none
attr source packetSentToLower
attr title "packets transmitted, count"
scalar scenario.client[5].ppp[3].ppp txPk:sum(packetBytes) 2189
attr interpolationmode none
attr source packetSentToLower
attr title "packets transmitted, sum(packetBytes)"
scalar scenario.client[5].ppp[3].ppp rcvdPkFromHl:count 46
attr interpolationmode none
attr source packetReceivedFromUpper
attr title "packets received from higher layer, count"
scalar scenario.client[5].ppp[3].ppp rcvdPkFromHl:sum(packetBytes) 1867
attr interpolationmode none
attr source packetReceivedFromUpper
attr title "packets received from higher layer, sum(packetBytes)"
scalar scenario.client[5].ppp[3].ppp passedUpPk:count 46
attr interpolationmode none
attr source packetSentToUpper
attr title "packets passed to higher layer, count"
scalar scenario.client[5].ppp[3].ppp passedUpPk:sum(packetBytes) 1874
attr interpolationmode none
attr source packetSentToUpper
attr title "packets passed to higher layer, sum(packetBytes)"
scalar scenario.client[5].ppp[3].ppp packetDropIncorrectlyReceived:count 0
attr interpolationmode none
attr source packetDropReasonIsIncorrectlyReceived(packetDropped)
attr title "packet drop: incorrectly received, count"
scalar scenario.client[5].ppp[3].ppp packetDropIncorrectlyReceived:sum(packetBytes) 0
attr interpolationmode none
attr source packetDropReasonIsIncorrectlyReceived(packetDropped)
attr title "packet drop: incorrectly received, sum(packetBytes)"
scalar scenario.client[5].ppp[3].ppp packetDropInterfaceDown:count 0
attr interpolationmode none
attr source packetDropReasonIsInterfaceDown(packetDropped)
attr title "packet drop: interface down, count"
scalar scenario.client[5].ppp[3].ppp packetDropInterfaceDown:sum(packetBytes) 0
attr interpolationmode none
attr source packetDropReasonIsInterfaceDown(packetDropped)
attr title "packet drop: interface down, sum(packetBytes)"
scalar scenario.client[5].ppp[3].ppp rxPkOk:count 46
attr interpolationmode none
attr source rxPkOk
attr title "packets received OK, count"
scalar scenario.client[5].ppp[3].ppp rxPkOk:sum(packetBytes) 2196
attr interpolationmode none
attr source rxPkOk
attr title "packets received OK, sum(packetBytes)"
scalar scenario.client[5].ppp[3].ppp transmissionState:timeavg 5.9692538432696e-007
attr interpolationmode sample-hold
attr source transmissionStateChanged
attr title "tx state, timeavg"
scalar scenario.client[5].ppp[4].ppp.queue packetPopped:count 241
attr interpolationmode none
attr title "packet popped, count"
scalar scenario.client[5].ppp[4].ppp.queue packetPopped:sum(packetBytes) 9766
attr interpolationmode none
attr title "packet popped, sum(packetBytes)"
statistic scenario.client[5].ppp[4].ppp.queue queueingTime:histogram
field count 241
field mean 0.00017473858921162
field stddev 0.00018792197551023
field min 0
field max 0.000376
field sum 0.042112
field sqrsum 1.5834112e-005
attr interpolationmode none
attr source queueingTime(packetPopped)
attr title "queueing times, histogram"
attr unit s
bin	-inf	0
bin	0	129
bin	1e-005	0
bin	2e-005	0
bin	3e-005	0
bin	4e-005	0
bin	5e-005	0
bin	6e-005	0
bin	7e-005	0
bin	8e-005	0
bin	9e-005	0
bin	0.0001	0
bin	0.00011	0
bin	0.00012	0
bin	0.00013	0
bin	0.00014	0
bin	0.00015	0
bin	0.00016	0
bin	0.00017	0
bin	0.00018	0
bin	0.00019	0
bin	0.0002	0
bin	0.00021	0
bin	0.00022	0
bin	0.00023	0
bin	0.00024	0
bin	0.00025	0
bin	0.00026	0
bin	0.00027	0
bin	0.00028	0
bin	0.00029	0
bin	0.0003	0
bin	0.00031	0
bin	0.00032	0
bin	0.00033	0
bin	0.00034	0
bin	0.00035	0
bin	0.00036	0
bin	0.00037	112
bin	0.00038	0
bin	0.00039	0
bin	0.0004	0
bin	0.00041	0
bin	0.00042	0
bin	0.00043	0
bin	0.00044	0
bin	0.00045	0
bin	0.00046	0
bin	0.00047	0
scalar scenario.client[5].ppp[4].ppp.queue queueLength:max 1
attr interpolationmode sample-hold
attr source "count(packetPushed) - count(packetPopped) - count(packetRemoved) - count(packetDropped)"
attr title "queue length, max"
scalar scenario.client[5].ppp[4].ppp.queue queueLength:timeavg 1.4356238487231e-006
attr interpolationmode sample-hold
attr source "count(packetPushed) - count(packetPopped) - count(packetRemoved) - count(packetDropped)"
attr title "queue length, timeavg"
scalar scenario.client[5].ppp[4].ppp.queue packetPushed:count 241
attr interpolationmode none
attr title "packet pushed, count"
scalar scenario.client[5].ppp[4].ppp.queue packetPushed:sum(packetBytes) 9766
attr interpolationmode none
attr title "packet pushed, sum(packetBytes)"
scalar scenario.client[5].ppp[4].ppp.queue packetDropQueueOverflow:count 0
attr interpolationmode none
attr source packetDropReasonIsQueueOverflow(packetDropped)
attr title "packet drops: queue overflow, count"
scalar scenario.client[5].ppp[4].ppp.queue packetDropQueueOverflow:sum(packetBytes) 0
attr interpolationmode none
attr source packetDropReasonIsQueueOverflow(packetDropped)
attr title "packet drops: queue overflow, sum(packetBytes)"
scalar scenario.client[5].ppp[4].ppp.queue packetRemoved:count 0
attr interpolationmode none
attr title "packets removed, count"
scalar scenario.client[5].ppp[4].ppp.queue packetRemoved:sum(packetBytes) 0
attr interpolationmode none
attr title "packets removed, sum(packetBytes)"
scalar scenario.client[5].ppp[4].ppp txPk:count 241
attr interpolationmode none
attr source packetSentToLower
attr title "packets transmitted, count"
scalar scenario.client[5].ppp[4].ppp txPk:sum(packetBytes) 11453
attr interpolationmode none
attr source packetSentToLower
attr title "packets transmitted, sum(packetBytes)"
scalar scenario.client[5].ppp[4].ppp rcvdPkFromHl:count 241
attr interpolationmode none
attr source packetReceivedFromUpper
attr title "packets received from higher layer, count"
scalar scenario.client[5].ppp[4].ppp rcvdPkFromHl:sum(packetBytes) 9766
attr interpolationmode none
attr source packetReceivedFromUpper
attr title "packets received from higher layer, sum(packetBytes)"
scalar scenario.client[5].ppp[4].ppp passedUpPk:count 241
attr interpolationmode none
attr source packetSentToUpper
attr title "packets passed to higher layer, count"
scalar scenario.client[5].ppp[4].ppp passedUpPk:sum(packetBytes) 9770
attr interpolationmode none
attr source packetSentToUpper
attr title "packets passed to higher layer, sum(packetBytes)"
scalar scenario.client[5].ppp[4].ppp packetDropIncorrectlyReceived:count 0
attr interpolationmode none
attr source packetDropReasonIsIncorrectlyReceived(packetDropped)
attr title "packet drop: incorrectly received, count"
scalar scenario.client[5].ppp[4].ppp packetDropIncorrectlyReceived:sum(packetBytes) 0
attr interpolationmode none
attr source packetDropReasonIsIncorrectlyReceived(packetDropped)
attr title "packet drop: incorrectly received, sum(packetBytes)"
scalar scenario.client[5].ppp[4].ppp packetDropInterfaceDown:count 0
attr interpolationmode none
attr source packetDropReasonIsInterfaceDown(packetDropped)
attr title "packet drop: interface down, count"
scalar scenario.client[5].ppp[4].ppp packetDropInterfaceDown:sum(packetBytes) 0
attr interpolationmode none
attr source packetDropReasonIsInterfaceDown(packetDropped)
attr title "packet drop: interface down, sum(packetBytes)"
scalar scenario.client[5].ppp[4].ppp rxPkOk:count 241
attr interpolationmode none
attr source rxPkOk
attr title "packets received OK, count"
scalar scenario.client[5].ppp[4].ppp rxPkOk:sum(packetBytes) 11457
attr interpolationmode none
attr source rxPkOk
attr title "packets received OK, sum(packetBytes)"
scalar scenario.client[5].ppp[4].ppp transmissionState:timeavg 3.1231550601629e-006
attr interpolationmode sample-hold
attr source transmissionStateChanged
attr title "tx state, timeavg"
scalar scenario.client[5].ipv4.ip packetDropAddressResolutionFailed:count 0
attr interpolationmode none
attr source packetDropReasonIsAddressResolutionFailed(packetDropped)
attr title "packet drop: address resolution failed, count"
scalar scenario.client[5].ipv4.ip packetDropAddressResolutionFailed:sum(packetBytes) 0
attr interpolationmode none
attr source packetDropReasonIsAddressResolutionFailed(packetDropped)
attr title "packet drop: address resolution failed, sum(packetBytes)"
scalar scenario.client[5].ipv4.ip packetDropHopLimitReached:count 0
attr interpolationmode none
attr source packetDropReasonIsHopLimitReached(packetDropped)
attr title "packet drop: hop limit reached, count"
scalar scenario.client[5].ipv4.ip packetDropHopLimitReached:sum(packetBytes) 0
attr interpolationmode none
attr source packetDropReasonIsHopLimitReached(packetDropped)
attr title "packet drop: hop limit reached, sum(packetBytes)"
scalar scenario.client[5].ipv4.ip packetDropForwardingDisabled:count 0
attr interpolationmode none
attr source packetDropReasonIsForwardingDisabled(packetDropped)
attr title "packet drop: forwarding disabled, count"
scalar scenario.client[5].ipv4.ip packetDropForwardingDisabled:sum(packetBytes) 0
attr interpolationmode none
attr source packetDropReasonIsForwardingDisabled(packetDropped)
attr title "packet drop: forwarding disabled, sum(packetBytes)"
scalar scenario.client[5].ipv4.ip packetDropNoInterfaceFound:count 0
attr interpolationmode none
attr source packetDropReasonIsNoInterfaceFound(packetDropped)
attr title "packet drop: no interface found, count"
scalar scenario.client[5].ipv4.ip packetDropNoInterfaceFound:sum(packetBytes) 0
attr interpolationmode none
attr source packetDropReasonIsNoInterfaceFound(packetDropped)
attr title "packet drop: no interface found, sum(packetBytes)"
scalar scenario.client[5].ipv4.ip packetDropNoRouteFound:count 0
attr interpolationmode none
attr source packetDropReasonIsNoRouteFound(packetDropped)
attr title "packet drop: no route found, count"
scalar scenario.client[5].ipv4.ip packetDropNoRouteFound:sum(packetBytes) 0
attr interpolationmode none
attr source packetDropReasonIsNoRouteFound(packetDropped)
attr title "packet drop: no route found, sum(packetBytes)"
scalar scenario.client[5].ipv4.ip packetDropUndefined:count 0
attr interpolationmode none
attr source packetDropReasonIsUndefined(packetDropped)
attr title "packet drop: undefined, count"
scalar scenario.client[5].ipv4.ip packetDropUndefined:sum(packetBytes) 0
attr interpolationmode none
attr source packetDropReasonIsUndefined(packetDropped)
attr title "packet drop: undefined, sum(packetBytes)"
scalar scenario.client[5].ipv4.arp arpReplySent:count 0
attr source arpReplySent
attr title "ARP replies sent, count"
scalar scenario.client[5].ipv4.arp arpReplySent:sum(packetBytes) 0
attr source arpReplySent
attr title "ARP replies sent, sum(packetBytes)"
scalar scenario.client[5].ipv4.arp arpRequestSent:count 0
attr source arpRequestSent
attr title "ARP request sent, count"
scalar scenario.client[5].ipv4.arp arpRequestSent:sum(packetBytes) 0
attr source arpRequestSent
attr title "ARP request sent, sum(packetBytes)"
scalar scenario.client[5].ipv4.arp arpResolutionFailed:count 0
attr title "ARP failed resolutions, count"
scalar scenario.client[5].ipv4.arp arpResolutionCompleted:count 0
attr title "ARP completed resolutions, count"
scalar scenario.client[5].ipv4.arp arpResolutionInitiated:count 0
attr title "ARP initiated resolutions, count"
scalar scenario.client[5].udp packetReceived:count 0
attr interpolationmode none
attr source packetReceived
attr title "packets received, count"
scalar scenario.client[5].udp packetReceived:sum(packetBytes) 0
attr interpolationmode none
attr source packetReceived
attr title "packets received, sum(packetBytes)"
scalar scenario.client[5].udp packetSent:count 0
attr interpolationmode none
attr source packetSent
attr title "packets sent, count"
scalar scenario.client[5].udp packetSent:sum(packetBytes) 0
attr interpolationmode none
attr source packetSent
attr title "packets sent, sum(packetBytes)"
scalar scenario.client[5].udp passedUpPk:count 0
attr interpolationmode none
attr source packetSentToUpper
attr title "packets passed up, count"
scalar scenario.client[5].udp droppedPkWrongPort:count 0
attr interpolationmode none
attr source packetDropReasonIsNoPortFound(packetDropped)
attr title "packets dropped (wrong port), count"
scalar scenario.client[5].udp droppedPkBadChecksum:count 0
attr interpolationmode none
attr source packetDropReasonIsIncorrectlyReceived(packetDropped)
attr title "packets dropped (checksum error), count"

