version 2
run BROADCAST-0-20211122-18:53:27-2880
attr configname BROADCAST
attr datetime 20211122-18:53:27
attr experiment BROADCAST
attr inifile omnetpp.ini
attr iterationvars ""
attr iterationvarsf ""
attr measurement ""
attr network scenario
attr processid 2880
attr repetition 0
attr replication #0
attr resultdir results
attr runnumber 0
attr seedset 0
param **.client1.app[0].broadcast 0.0
param **.client3.app[0].join 3.0
param **.client3.app[0].broadcast 0.0
param **.client2.app[0].broadcast 2.0
param **.client4.app[0].join 5.0
param **.ppp[*].ppp.queue.typename "\"DropTailQueue\""
param **.tcp.typename "\"Tcp\""
param **.tcp.nagleEnabled false
param **.cli*.app[*].nPar 5
param **.cli*.app[*].fPar 0
param **.numApps 1
param **.client0.app[*].typename "\"Node\""
param **.client0.app[0].localPort 1000
param **.client0.app[0].localPortL 1234
param **.client0.app[0].connectAddress "\"\""
param **.client0.app[0].connectPort 1234
param **.client1.app[*].typename "\"Node\""
param **.client1.app[0].localPort 1001
param **.client1.app[0].localPortL 1234
param **.client1.app[0].connectAddress "\"\""
param **.client1.app[0].connectPort 1234
param **.client2.app[*].typename "\"Node\""
param **.client2.app[0].localPort 1002
param **.client2.app[0].localPortL 1234
param **.client2.app[0].connectAddress "\"\""
param **.client2.app[0].connectPort 1234
param **.client3.app[*].typename "\"Node\""
param **.client3.app[0].localPort 1003
param **.client3.app[0].localPortL 1234
param **.client3.app[0].connectAddress "\"\""
param **.client3.app[0].connectPort 1234
param **.client4.app[*].typename "\"Node\""
param **.client4.app[0].localPort 1004
param **.client4.app[0].localPortL 1234
param **.client4.app[0].connectAddress "\"\""
param **.client4.app[0].connectPort 1234

vector 0 scenario.client0.ppp[0].ppp transmissionState:vector ETV
attr interpolationmode sample-hold
attr source transmissionStateChanged
attr title "tx state, vector"
vector 1 scenario.client0.ppp[1].ppp transmissionState:vector ETV
attr interpolationmode sample-hold
attr source transmissionStateChanged
attr title "tx state, vector"
vector 2 scenario.client0.ppp[2].ppp transmissionState:vector ETV
attr interpolationmode sample-hold
attr source transmissionStateChanged
attr title "tx state, vector"
vector 3 scenario.client0.ppp[3].ppp transmissionState:vector ETV
attr interpolationmode sample-hold
attr source transmissionStateChanged
attr title "tx state, vector"
vector 4 scenario.client1.ppp[0].ppp transmissionState:vector ETV
attr interpolationmode sample-hold
attr source transmissionStateChanged
attr title "tx state, vector"
vector 5 scenario.client1.ppp[1].ppp transmissionState:vector ETV
attr interpolationmode sample-hold
attr source transmissionStateChanged
attr title "tx state, vector"
vector 6 scenario.client1.ppp[2].ppp transmissionState:vector ETV
attr interpolationmode sample-hold
attr source transmissionStateChanged
attr title "tx state, vector"
vector 7 scenario.client1.ppp[3].ppp transmissionState:vector ETV
attr interpolationmode sample-hold
attr source transmissionStateChanged
attr title "tx state, vector"
vector 8 scenario.client2.ppp[0].ppp transmissionState:vector ETV
attr interpolationmode sample-hold
attr source transmissionStateChanged
attr title "tx state, vector"
vector 9 scenario.client2.ppp[1].ppp transmissionState:vector ETV
attr interpolationmode sample-hold
attr source transmissionStateChanged
attr title "tx state, vector"
vector 10 scenario.client2.ppp[2].ppp transmissionState:vector ETV
attr interpolationmode sample-hold
attr source transmissionStateChanged
attr title "tx state, vector"
vector 11 scenario.client2.ppp[3].ppp transmissionState:vector ETV
attr interpolationmode sample-hold
attr source transmissionStateChanged
attr title "tx state, vector"
vector 12 scenario.client3.ppp[0].ppp transmissionState:vector ETV
attr interpolationmode sample-hold
attr source transmissionStateChanged
attr title "tx state, vector"
vector 13 scenario.client3.ppp[1].ppp transmissionState:vector ETV
attr interpolationmode sample-hold
attr source transmissionStateChanged
attr title "tx state, vector"
vector 14 scenario.client3.ppp[2].ppp transmissionState:vector ETV
attr interpolationmode sample-hold
attr source transmissionStateChanged
attr title "tx state, vector"
vector 15 scenario.client3.ppp[3].ppp transmissionState:vector ETV
attr interpolationmode sample-hold
attr source transmissionStateChanged
attr title "tx state, vector"
vector 16 scenario.client4.ppp[0].ppp transmissionState:vector ETV
attr interpolationmode sample-hold
attr source transmissionStateChanged
attr title "tx state, vector"
vector 17 scenario.client4.ppp[1].ppp transmissionState:vector ETV
attr interpolationmode sample-hold
attr source transmissionStateChanged
attr title "tx state, vector"
vector 18 scenario.client4.ppp[2].ppp transmissionState:vector ETV
attr interpolationmode sample-hold
attr source transmissionStateChanged
attr title "tx state, vector"
vector 19 scenario.client4.ppp[3].ppp transmissionState:vector ETV
attr interpolationmode sample-hold
attr source transmissionStateChanged
attr title "tx state, vector"
vector 20 scenario.client1.tcp.conn-30 tcpRcvQueueBytes:vector ETV
attr interpolationmode sample-hold
vector 21 scenario.client1.tcp.conn-30 rcvAdv:vector ETV
attr interpolationmode sample-hold
vector 22 scenario.client1.tcp.conn-30 rcvWnd:vector ETV
attr interpolationmode sample-hold
vector 23 scenario.client1.tcp.conn-30 sndAck:vector ETV
attr interpolationmode sample-hold
vector 24 scenario.client1.ppp[0].ppp rcvdPkFromHl:vector(packetBytes) ETV
attr interpolationmode none
attr source packetReceivedFromUpper
attr title "packets received from higher layer, vector(packetBytes)"
vector 25 scenario.client1.ppp[0].ppp.queue packetPushed:vector(packetBytes) ETV
attr interpolationmode none
attr title "packet pushed, vector(packetBytes)"
vector 26 scenario.client1.ppp[0].ppp.queue queueLength:vector ETV
attr interpolationmode sample-hold
attr source "count(packetPushed) - count(packetPopped) - count(packetRemoved) - count(packetDropped)"
attr title "queue length, vector"
vector 27 scenario.client1.ppp[0].ppp.queue packetPopped:vector(packetBytes) ETV
attr interpolationmode none
attr title "packet popped, vector(packetBytes)"
vector 28 scenario.client1.ppp[0].ppp.queue queueingTime:vector ETV
attr interpolationmode none
attr source queueingTime(packetPopped)
attr title "queueing times, vector"
attr unit s
vector 29 scenario.client1.ppp[0].ppp txPk:vector(packetBytes) ETV
attr interpolationmode none
attr source packetSentToLower
attr title "packets transmitted, vector(packetBytes)"
vector 30 scenario.client0.ppp[0].ppp rxPkOk:vector(packetBytes) ETV
attr interpolationmode none
attr source rxPkOk
attr title "packets received OK, vector(packetBytes)"
vector 31 scenario.client0.ppp[0].ppp passedUpPk:vector(packetBytes) ETV
attr interpolationmode none
attr source packetSentToUpper
attr title "packets passed to higher layer, vector(packetBytes)"
vector 32 scenario.client0.tcp.conn-25 rcvSeq:vector ETV
attr interpolationmode sample-hold
vector 33 scenario.client0.tcp.conn-25 rcvAck:vector ETV
attr interpolationmode sample-hold
vector 34 scenario.client0.tcp.conn-31 rcvAdv:vector ETV
attr interpolationmode sample-hold
vector 35 scenario.client0.tcp.conn-31 sndWnd:vector ETV
attr interpolationmode sample-hold
vector 36 scenario.client0.tcp.conn-31 tcpRcvQueueBytes:vector ETV
attr interpolationmode sample-hold
vector 37 scenario.client0.tcp.conn-31 rcvWnd:vector ETV
attr interpolationmode sample-hold
vector 38 scenario.client0.tcp.conn-31 sndAck:vector ETV
attr interpolationmode sample-hold
vector 39 scenario.client0.ppp[0].ppp rcvdPkFromHl:vector(packetBytes) ETV
attr interpolationmode none
attr source packetReceivedFromUpper
attr title "packets received from higher layer, vector(packetBytes)"
vector 40 scenario.client0.ppp[0].ppp.queue packetPushed:vector(packetBytes) ETV
attr interpolationmode none
attr title "packet pushed, vector(packetBytes)"
vector 41 scenario.client0.ppp[0].ppp.queue queueLength:vector ETV
attr interpolationmode sample-hold
attr source "count(packetPushed) - count(packetPopped) - count(packetRemoved) - count(packetDropped)"
attr title "queue length, vector"
vector 42 scenario.client0.ppp[0].ppp.queue packetPopped:vector(packetBytes) ETV
attr interpolationmode none
attr title "packet popped, vector(packetBytes)"
vector 43 scenario.client0.ppp[0].ppp.queue queueingTime:vector ETV
attr interpolationmode none
attr source queueingTime(packetPopped)
attr title "queueing times, vector"
attr unit s
vector 44 scenario.client0.ppp[0].ppp txPk:vector(packetBytes) ETV
attr interpolationmode none
attr source packetSentToLower
attr title "packets transmitted, vector(packetBytes)"
vector 45 scenario.client1.ppp[0].ppp rxPkOk:vector(packetBytes) ETV
attr interpolationmode none
attr source rxPkOk
attr title "packets received OK, vector(packetBytes)"
vector 46 scenario.client1.ppp[0].ppp passedUpPk:vector(packetBytes) ETV
attr interpolationmode none
attr source packetSentToUpper
attr title "packets passed to higher layer, vector(packetBytes)"
vector 47 scenario.client1.tcp.conn-30 rcvSeq:vector ETV
attr interpolationmode sample-hold
vector 48 scenario.client1.tcp.conn-30 rcvAck:vector ETV
attr interpolationmode sample-hold
vector 49 scenario.client1.tcp.conn-30 sndWnd:vector ETV
attr interpolationmode sample-hold
vector 50 scenario.client1.tcp.conn-30 unacked:vector ETV
attr interpolationmode sample-hold
vector 51 scenario.client0.tcp.conn-31 rcvSeq:vector ETV
attr interpolationmode sample-hold
vector 52 scenario.client0.tcp.conn-31 rcvAck:vector ETV
attr interpolationmode sample-hold
vector 53 scenario.client0.tcp.conn-31 unacked:vector ETV
attr interpolationmode sample-hold
vector 54 scenario.client0.tcp.conn-31 cwnd:vector ETV
attr interpolationmode sample-hold
vector 55 scenario.client0.tcp.conn-31 ssthresh:vector ETV
attr interpolationmode sample-hold
vector 56 scenario.client0.tcp.conn-31 dupAcks:vector ETV
attr interpolationmode sample-hold
vector 57 scenario.client1.tcp.conn-30 rtt:vector ETV
attr interpolationmode sample-hold
vector 58 scenario.client1.tcp.conn-30 srtt:vector ETV
attr interpolationmode sample-hold
vector 59 scenario.client1.tcp.conn-30 rttvar:vector ETV
attr interpolationmode sample-hold
vector 60 scenario.client1.tcp.conn-30 rto:vector ETV
attr interpolationmode sample-hold
vector 61 scenario.client1.tcp.conn-30 cwnd:vector ETV
attr interpolationmode sample-hold
vector 62 scenario.client1.tcp.conn-30 ssthresh:vector ETV
attr interpolationmode sample-hold
vector 63 scenario.client1.tcp.conn-30 dupAcks:vector ETV
attr interpolationmode sample-hold
vector 64 scenario.client1.tcp.conn-32 tcpRcvQueueBytes:vector ETV
attr interpolationmode sample-hold
vector 65 scenario.client1.tcp.conn-32 rcvAdv:vector ETV
attr interpolationmode sample-hold
vector 66 scenario.client1.tcp.conn-32 rcvWnd:vector ETV
attr interpolationmode sample-hold
vector 67 scenario.client1.tcp.conn-32 sndAck:vector ETV
attr interpolationmode sample-hold
vector 68 scenario.client1.ppp[1].ppp rcvdPkFromHl:vector(packetBytes) ETV
attr interpolationmode none
attr source packetReceivedFromUpper
attr title "packets received from higher layer, vector(packetBytes)"
vector 69 scenario.client1.ppp[1].ppp.queue packetPushed:vector(packetBytes) ETV
attr interpolationmode none
attr title "packet pushed, vector(packetBytes)"
vector 70 scenario.client1.ppp[1].ppp.queue queueLength:vector ETV
attr interpolationmode sample-hold
attr source "count(packetPushed) - count(packetPopped) - count(packetRemoved) - count(packetDropped)"
attr title "queue length, vector"
vector 71 scenario.client1.ppp[1].ppp.queue packetPopped:vector(packetBytes) ETV
attr interpolationmode none
attr title "packet popped, vector(packetBytes)"
vector 72 scenario.client1.ppp[1].ppp.queue queueingTime:vector ETV
attr interpolationmode none
attr source queueingTime(packetPopped)
attr title "queueing times, vector"
attr unit s
vector 73 scenario.client1.ppp[1].ppp txPk:vector(packetBytes) ETV
attr interpolationmode none
attr source packetSentToLower
attr title "packets transmitted, vector(packetBytes)"
vector 74 scenario.client2.ppp[1].ppp rxPkOk:vector(packetBytes) ETV
attr interpolationmode none
attr source rxPkOk
attr title "packets received OK, vector(packetBytes)"
vector 75 scenario.client2.ppp[1].ppp passedUpPk:vector(packetBytes) ETV
attr interpolationmode none
attr source packetSentToUpper
attr title "packets passed to higher layer, vector(packetBytes)"
vector 76 scenario.client2.tcp.conn-27 rcvSeq:vector ETV
attr interpolationmode sample-hold
vector 77 scenario.client2.tcp.conn-27 rcvAck:vector ETV
attr interpolationmode sample-hold
vector 78 scenario.client2.tcp.conn-33 rcvAdv:vector ETV
attr interpolationmode sample-hold
vector 79 scenario.client2.tcp.conn-33 sndWnd:vector ETV
attr interpolationmode sample-hold
vector 80 scenario.client2.tcp.conn-33 tcpRcvQueueBytes:vector ETV
attr interpolationmode sample-hold
vector 81 scenario.client2.tcp.conn-33 rcvWnd:vector ETV
attr interpolationmode sample-hold
vector 82 scenario.client2.tcp.conn-33 sndAck:vector ETV
attr interpolationmode sample-hold
vector 83 scenario.client2.ppp[1].ppp rcvdPkFromHl:vector(packetBytes) ETV
attr interpolationmode none
attr source packetReceivedFromUpper
attr title "packets received from higher layer, vector(packetBytes)"
vector 84 scenario.client2.ppp[1].ppp.queue packetPushed:vector(packetBytes) ETV
attr interpolationmode none
attr title "packet pushed, vector(packetBytes)"
vector 85 scenario.client2.ppp[1].ppp.queue queueLength:vector ETV
attr interpolationmode sample-hold
attr source "count(packetPushed) - count(packetPopped) - count(packetRemoved) - count(packetDropped)"
attr title "queue length, vector"
vector 86 scenario.client2.ppp[1].ppp.queue packetPopped:vector(packetBytes) ETV
attr interpolationmode none
attr title "packet popped, vector(packetBytes)"
vector 87 scenario.client2.ppp[1].ppp.queue queueingTime:vector ETV
attr interpolationmode none
attr source queueingTime(packetPopped)
attr title "queueing times, vector"
attr unit s
vector 88 scenario.client2.ppp[1].ppp txPk:vector(packetBytes) ETV
attr interpolationmode none
attr source packetSentToLower
attr title "packets transmitted, vector(packetBytes)"
vector 89 scenario.client1.ppp[1].ppp rxPkOk:vector(packetBytes) ETV
attr interpolationmode none
attr source rxPkOk
attr title "packets received OK, vector(packetBytes)"
vector 90 scenario.client1.ppp[1].ppp passedUpPk:vector(packetBytes) ETV
attr interpolationmode none
attr source packetSentToUpper
attr title "packets passed to higher layer, vector(packetBytes)"
vector 91 scenario.client1.tcp.conn-32 rcvSeq:vector ETV
attr interpolationmode sample-hold
vector 92 scenario.client1.tcp.conn-32 rcvAck:vector ETV
attr interpolationmode sample-hold
vector 93 scenario.client1.tcp.conn-32 sndWnd:vector ETV
attr interpolationmode sample-hold
vector 94 scenario.client1.tcp.conn-32 unacked:vector ETV
attr interpolationmode sample-hold
vector 95 scenario.client2.tcp.conn-33 rcvSeq:vector ETV
attr interpolationmode sample-hold
vector 96 scenario.client2.tcp.conn-33 rcvAck:vector ETV
attr interpolationmode sample-hold
vector 97 scenario.client2.tcp.conn-33 unacked:vector ETV
attr interpolationmode sample-hold
vector 98 scenario.client2.tcp.conn-33 cwnd:vector ETV
attr interpolationmode sample-hold
vector 99 scenario.client2.tcp.conn-33 ssthresh:vector ETV
attr interpolationmode sample-hold
vector 100 scenario.client2.tcp.conn-33 dupAcks:vector ETV
attr interpolationmode sample-hold
vector 101 scenario.client1.tcp.conn-32 rtt:vector ETV
attr interpolationmode sample-hold
vector 102 scenario.client1.tcp.conn-32 srtt:vector ETV
attr interpolationmode sample-hold
vector 103 scenario.client1.tcp.conn-32 rttvar:vector ETV
attr interpolationmode sample-hold
vector 104 scenario.client1.tcp.conn-32 rto:vector ETV
attr interpolationmode sample-hold
vector 105 scenario.client1.tcp.conn-32 cwnd:vector ETV
attr interpolationmode sample-hold
vector 106 scenario.client1.tcp.conn-32 ssthresh:vector ETV
attr interpolationmode sample-hold
vector 107 scenario.client1.tcp.conn-32 dupAcks:vector ETV
attr interpolationmode sample-hold
vector 108 scenario.client0.tcp.conn-34 tcpRcvQueueBytes:vector ETV
attr interpolationmode sample-hold
vector 109 scenario.client0.tcp.conn-34 rcvAdv:vector ETV
attr interpolationmode sample-hold
vector 110 scenario.client0.tcp.conn-34 rcvWnd:vector ETV
attr interpolationmode sample-hold
vector 111 scenario.client0.tcp.conn-34 sndAck:vector ETV
attr interpolationmode sample-hold
vector 112 scenario.client1.tcp.conn-26 rcvSeq:vector ETV
attr interpolationmode sample-hold
vector 113 scenario.client1.tcp.conn-26 rcvAck:vector ETV
attr interpolationmode sample-hold
vector 114 scenario.client1.tcp.conn-35 rcvAdv:vector ETV
attr interpolationmode sample-hold
vector 115 scenario.client1.tcp.conn-35 sndWnd:vector ETV
attr interpolationmode sample-hold
vector 116 scenario.client1.tcp.conn-35 tcpRcvQueueBytes:vector ETV
attr interpolationmode sample-hold
vector 117 scenario.client1.tcp.conn-35 rcvWnd:vector ETV
attr interpolationmode sample-hold
vector 118 scenario.client1.tcp.conn-35 sndAck:vector ETV
attr interpolationmode sample-hold
vector 119 scenario.client0.tcp.conn-34 rcvSeq:vector ETV
attr interpolationmode sample-hold
vector 120 scenario.client0.tcp.conn-34 rcvAck:vector ETV
attr interpolationmode sample-hold
vector 121 scenario.client0.tcp.conn-34 sndWnd:vector ETV
attr interpolationmode sample-hold
vector 122 scenario.client0.tcp.conn-34 unacked:vector ETV
attr interpolationmode sample-hold
vector 123 scenario.client1.tcp.conn-35 rcvSeq:vector ETV
attr interpolationmode sample-hold
vector 124 scenario.client1.tcp.conn-35 rcvAck:vector ETV
attr interpolationmode sample-hold
vector 125 scenario.client1.tcp.conn-35 unacked:vector ETV
attr interpolationmode sample-hold
vector 126 scenario.client1.tcp.conn-35 cwnd:vector ETV
attr interpolationmode sample-hold
vector 127 scenario.client1.tcp.conn-35 ssthresh:vector ETV
attr interpolationmode sample-hold
vector 128 scenario.client1.tcp.conn-35 dupAcks:vector ETV
attr interpolationmode sample-hold
vector 129 scenario.client0.tcp.conn-34 rtt:vector ETV
attr interpolationmode sample-hold
vector 130 scenario.client0.tcp.conn-34 srtt:vector ETV
attr interpolationmode sample-hold
vector 131 scenario.client0.tcp.conn-34 rttvar:vector ETV
attr interpolationmode sample-hold
vector 132 scenario.client0.tcp.conn-34 rto:vector ETV
attr interpolationmode sample-hold
vector 133 scenario.client0.tcp.conn-34 cwnd:vector ETV
attr interpolationmode sample-hold
vector 134 scenario.client0.tcp.conn-34 ssthresh:vector ETV
attr interpolationmode sample-hold
vector 135 scenario.client0.tcp.conn-34 dupAcks:vector ETV
attr interpolationmode sample-hold
vector 136 scenario.client2.tcp.conn-36 tcpRcvQueueBytes:vector ETV
attr interpolationmode sample-hold
vector 137 scenario.client2.tcp.conn-36 rcvAdv:vector ETV
attr interpolationmode sample-hold
vector 138 scenario.client2.tcp.conn-36 rcvWnd:vector ETV
attr interpolationmode sample-hold
vector 139 scenario.client2.tcp.conn-36 sndAck:vector ETV
attr interpolationmode sample-hold
vector 140 scenario.client1.tcp.conn-37 rcvAdv:vector ETV
attr interpolationmode sample-hold
vector 141 scenario.client1.tcp.conn-37 sndWnd:vector ETV
attr interpolationmode sample-hold
vector 142 scenario.client1.tcp.conn-37 tcpRcvQueueBytes:vector ETV
attr interpolationmode sample-hold
vector 143 scenario.client1.tcp.conn-37 rcvWnd:vector ETV
attr interpolationmode sample-hold
vector 144 scenario.client1.tcp.conn-37 sndAck:vector ETV
attr interpolationmode sample-hold
vector 145 scenario.client2.tcp.conn-36 rcvSeq:vector ETV
attr interpolationmode sample-hold
vector 146 scenario.client2.tcp.conn-36 rcvAck:vector ETV
attr interpolationmode sample-hold
vector 147 scenario.client2.tcp.conn-36 sndWnd:vector ETV
attr interpolationmode sample-hold
vector 148 scenario.client2.tcp.conn-36 unacked:vector ETV
attr interpolationmode sample-hold
vector 149 scenario.client1.tcp.conn-37 rcvSeq:vector ETV
attr interpolationmode sample-hold
vector 150 scenario.client1.tcp.conn-37 rcvAck:vector ETV
attr interpolationmode sample-hold
vector 151 scenario.client1.tcp.conn-37 unacked:vector ETV
attr interpolationmode sample-hold
vector 152 scenario.client1.tcp.conn-37 cwnd:vector ETV
attr interpolationmode sample-hold
vector 153 scenario.client1.tcp.conn-37 ssthresh:vector ETV
attr interpolationmode sample-hold
vector 154 scenario.client1.tcp.conn-37 dupAcks:vector ETV
attr interpolationmode sample-hold
vector 155 scenario.client2.tcp.conn-36 rtt:vector ETV
attr interpolationmode sample-hold
vector 156 scenario.client2.tcp.conn-36 srtt:vector ETV
attr interpolationmode sample-hold
vector 157 scenario.client2.tcp.conn-36 rttvar:vector ETV
attr interpolationmode sample-hold
vector 158 scenario.client2.tcp.conn-36 rto:vector ETV
attr interpolationmode sample-hold
vector 159 scenario.client2.tcp.conn-36 cwnd:vector ETV
attr interpolationmode sample-hold
vector 160 scenario.client2.tcp.conn-36 ssthresh:vector ETV
attr interpolationmode sample-hold
vector 161 scenario.client2.tcp.conn-36 dupAcks:vector ETV
attr interpolationmode sample-hold
vector 162 scenario.client2.tcp.conn-38 tcpRcvQueueBytes:vector ETV
attr interpolationmode sample-hold
vector 163 scenario.client2.tcp.conn-38 rcvAdv:vector ETV
attr interpolationmode sample-hold
vector 164 scenario.client2.tcp.conn-38 rcvWnd:vector ETV
attr interpolationmode sample-hold
vector 165 scenario.client2.tcp.conn-38 sndAck:vector ETV
attr interpolationmode sample-hold
vector 166 scenario.client2.ppp[0].ppp rcvdPkFromHl:vector(packetBytes) ETV
attr interpolationmode none
attr source packetReceivedFromUpper
attr title "packets received from higher layer, vector(packetBytes)"
vector 167 scenario.client2.ppp[0].ppp.queue packetPushed:vector(packetBytes) ETV
attr interpolationmode none
attr title "packet pushed, vector(packetBytes)"
vector 168 scenario.client2.ppp[0].ppp.queue queueLength:vector ETV
attr interpolationmode sample-hold
attr source "count(packetPushed) - count(packetPopped) - count(packetRemoved) - count(packetDropped)"
attr title "queue length, vector"
vector 169 scenario.client2.ppp[0].ppp.queue packetPopped:vector(packetBytes) ETV
attr interpolationmode none
attr title "packet popped, vector(packetBytes)"
vector 170 scenario.client2.ppp[0].ppp.queue queueingTime:vector ETV
attr interpolationmode none
attr source queueingTime(packetPopped)
attr title "queueing times, vector"
attr unit s
vector 171 scenario.client2.ppp[0].ppp txPk:vector(packetBytes) ETV
attr interpolationmode none
attr source packetSentToLower
attr title "packets transmitted, vector(packetBytes)"
vector 172 scenario.client0.ppp[1].ppp rxPkOk:vector(packetBytes) ETV
attr interpolationmode none
attr source rxPkOk
attr title "packets received OK, vector(packetBytes)"
vector 173 scenario.client0.ppp[1].ppp passedUpPk:vector(packetBytes) ETV
attr interpolationmode none
attr source packetSentToUpper
attr title "packets passed to higher layer, vector(packetBytes)"
vector 174 scenario.client0.tcp.conn-39 rcvAdv:vector ETV
attr interpolationmode sample-hold
vector 175 scenario.client0.tcp.conn-39 sndWnd:vector ETV
attr interpolationmode sample-hold
vector 176 scenario.client0.tcp.conn-39 tcpRcvQueueBytes:vector ETV
attr interpolationmode sample-hold
vector 177 scenario.client0.tcp.conn-39 rcvWnd:vector ETV
attr interpolationmode sample-hold
vector 178 scenario.client0.tcp.conn-39 sndAck:vector ETV
attr interpolationmode sample-hold
vector 179 scenario.client0.ppp[1].ppp rcvdPkFromHl:vector(packetBytes) ETV
attr interpolationmode none
attr source packetReceivedFromUpper
attr title "packets received from higher layer, vector(packetBytes)"
vector 180 scenario.client0.ppp[1].ppp.queue packetPushed:vector(packetBytes) ETV
attr interpolationmode none
attr title "packet pushed, vector(packetBytes)"
vector 181 scenario.client0.ppp[1].ppp.queue queueLength:vector ETV
attr interpolationmode sample-hold
attr source "count(packetPushed) - count(packetPopped) - count(packetRemoved) - count(packetDropped)"
attr title "queue length, vector"
vector 182 scenario.client0.ppp[1].ppp.queue packetPopped:vector(packetBytes) ETV
attr interpolationmode none
attr title "packet popped, vector(packetBytes)"
vector 183 scenario.client0.ppp[1].ppp.queue queueingTime:vector ETV
attr interpolationmode none
attr source queueingTime(packetPopped)
attr title "queueing times, vector"
attr unit s
vector 184 scenario.client0.ppp[1].ppp txPk:vector(packetBytes) ETV
attr interpolationmode none
attr source packetSentToLower
attr title "packets transmitted, vector(packetBytes)"
vector 185 scenario.client2.ppp[0].ppp rxPkOk:vector(packetBytes) ETV
attr interpolationmode none
attr source rxPkOk
attr title "packets received OK, vector(packetBytes)"
vector 186 scenario.client2.ppp[0].ppp passedUpPk:vector(packetBytes) ETV
attr interpolationmode none
attr source packetSentToUpper
attr title "packets passed to higher layer, vector(packetBytes)"
vector 187 scenario.client2.tcp.conn-38 rcvSeq:vector ETV
attr interpolationmode sample-hold
vector 188 scenario.client2.tcp.conn-38 rcvAck:vector ETV
attr interpolationmode sample-hold
vector 189 scenario.client2.tcp.conn-38 sndWnd:vector ETV
attr interpolationmode sample-hold
vector 190 scenario.client2.tcp.conn-38 unacked:vector ETV
attr interpolationmode sample-hold
vector 191 scenario.client0.tcp.conn-39 rcvSeq:vector ETV
attr interpolationmode sample-hold
vector 192 scenario.client0.tcp.conn-39 rcvAck:vector ETV
attr interpolationmode sample-hold
vector 193 scenario.client0.tcp.conn-39 unacked:vector ETV
attr interpolationmode sample-hold
vector 194 scenario.client0.tcp.conn-39 cwnd:vector ETV
attr interpolationmode sample-hold
vector 195 scenario.client0.tcp.conn-39 ssthresh:vector ETV
attr interpolationmode sample-hold
vector 196 scenario.client0.tcp.conn-39 dupAcks:vector ETV
attr interpolationmode sample-hold
vector 197 scenario.client2.tcp.conn-38 rtt:vector ETV
attr interpolationmode sample-hold
vector 198 scenario.client2.tcp.conn-38 srtt:vector ETV
attr interpolationmode sample-hold
vector 199 scenario.client2.tcp.conn-38 rttvar:vector ETV
attr interpolationmode sample-hold
vector 200 scenario.client2.tcp.conn-38 rto:vector ETV
attr interpolationmode sample-hold
vector 201 scenario.client2.tcp.conn-38 cwnd:vector ETV
attr interpolationmode sample-hold
vector 202 scenario.client2.tcp.conn-38 ssthresh:vector ETV
attr interpolationmode sample-hold
vector 203 scenario.client2.tcp.conn-38 dupAcks:vector ETV
attr interpolationmode sample-hold
vector 204 scenario.client0.tcp.conn-40 tcpRcvQueueBytes:vector ETV
attr interpolationmode sample-hold
vector 205 scenario.client0.tcp.conn-40 rcvAdv:vector ETV
attr interpolationmode sample-hold
vector 206 scenario.client0.tcp.conn-40 rcvWnd:vector ETV
attr interpolationmode sample-hold
vector 207 scenario.client0.tcp.conn-40 sndAck:vector ETV
attr interpolationmode sample-hold
vector 208 scenario.client2.tcp.conn-41 rcvAdv:vector ETV
attr interpolationmode sample-hold
vector 209 scenario.client2.tcp.conn-41 sndWnd:vector ETV
attr interpolationmode sample-hold
vector 210 scenario.client2.tcp.conn-41 tcpRcvQueueBytes:vector ETV
attr interpolationmode sample-hold
vector 211 scenario.client2.tcp.conn-41 rcvWnd:vector ETV
attr interpolationmode sample-hold
vector 212 scenario.client2.tcp.conn-41 sndAck:vector ETV
attr interpolationmode sample-hold
vector 213 scenario.client0.tcp.conn-40 rcvSeq:vector ETV
attr interpolationmode sample-hold
vector 214 scenario.client0.tcp.conn-40 rcvAck:vector ETV
attr interpolationmode sample-hold
vector 215 scenario.client0.tcp.conn-40 sndWnd:vector ETV
attr interpolationmode sample-hold
vector 216 scenario.client0.tcp.conn-40 unacked:vector ETV
attr interpolationmode sample-hold
vector 217 scenario.client2.tcp.conn-41 rcvSeq:vector ETV
attr interpolationmode sample-hold
vector 218 scenario.client2.tcp.conn-41 rcvAck:vector ETV
attr interpolationmode sample-hold
vector 219 scenario.client2.tcp.conn-41 unacked:vector ETV
attr interpolationmode sample-hold
vector 220 scenario.client2.tcp.conn-41 cwnd:vector ETV
attr interpolationmode sample-hold
vector 221 scenario.client2.tcp.conn-41 ssthresh:vector ETV
attr interpolationmode sample-hold
vector 222 scenario.client2.tcp.conn-41 dupAcks:vector ETV
attr interpolationmode sample-hold
vector 223 scenario.client0.tcp.conn-40 rtt:vector ETV
attr interpolationmode sample-hold
vector 224 scenario.client0.tcp.conn-40 srtt:vector ETV
attr interpolationmode sample-hold
vector 225 scenario.client0.tcp.conn-40 rttvar:vector ETV
attr interpolationmode sample-hold
vector 226 scenario.client0.tcp.conn-40 rto:vector ETV
attr interpolationmode sample-hold
vector 227 scenario.client0.tcp.conn-40 cwnd:vector ETV
attr interpolationmode sample-hold
vector 228 scenario.client0.tcp.conn-40 ssthresh:vector ETV
attr interpolationmode sample-hold
vector 229 scenario.client0.tcp.conn-40 dupAcks:vector ETV
attr interpolationmode sample-hold
vector 230 scenario.client3.tcp.conn-42 tcpRcvQueueBytes:vector ETV
attr interpolationmode sample-hold
vector 231 scenario.client3.tcp.conn-42 rcvAdv:vector ETV
attr interpolationmode sample-hold
vector 232 scenario.client3.tcp.conn-42 rcvWnd:vector ETV
attr interpolationmode sample-hold
vector 233 scenario.client3.tcp.conn-42 sndAck:vector ETV
attr interpolationmode sample-hold
vector 234 scenario.client3.ppp[1].ppp rcvdPkFromHl:vector(packetBytes) ETV
attr interpolationmode none
attr source packetReceivedFromUpper
attr title "packets received from higher layer, vector(packetBytes)"
vector 235 scenario.client3.ppp[1].ppp.queue packetPushed:vector(packetBytes) ETV
attr interpolationmode none
attr title "packet pushed, vector(packetBytes)"
vector 236 scenario.client3.ppp[1].ppp.queue queueLength:vector ETV
attr interpolationmode sample-hold
attr source "count(packetPushed) - count(packetPopped) - count(packetRemoved) - count(packetDropped)"
attr title "queue length, vector"
vector 237 scenario.client3.ppp[1].ppp.queue packetPopped:vector(packetBytes) ETV
attr interpolationmode none
attr title "packet popped, vector(packetBytes)"
vector 238 scenario.client3.ppp[1].ppp.queue queueingTime:vector ETV
attr interpolationmode none
attr source queueingTime(packetPopped)
attr title "queueing times, vector"
attr unit s
vector 239 scenario.client3.ppp[1].ppp txPk:vector(packetBytes) ETV
attr interpolationmode none
attr source packetSentToLower
attr title "packets transmitted, vector(packetBytes)"
vector 240 scenario.client1.ppp[2].ppp rxPkOk:vector(packetBytes) ETV
attr interpolationmode none
attr source rxPkOk
attr title "packets received OK, vector(packetBytes)"
vector 241 scenario.client1.ppp[2].ppp passedUpPk:vector(packetBytes) ETV
attr interpolationmode none
attr source packetSentToUpper
attr title "packets passed to higher layer, vector(packetBytes)"
vector 242 scenario.client1.tcp.conn-43 rcvAdv:vector ETV
attr interpolationmode sample-hold
vector 243 scenario.client1.tcp.conn-43 sndWnd:vector ETV
attr interpolationmode sample-hold
vector 244 scenario.client1.tcp.conn-43 tcpRcvQueueBytes:vector ETV
attr interpolationmode sample-hold
vector 245 scenario.client1.tcp.conn-43 rcvWnd:vector ETV
attr interpolationmode sample-hold
vector 246 scenario.client1.tcp.conn-43 sndAck:vector ETV
attr interpolationmode sample-hold
vector 247 scenario.client1.ppp[2].ppp rcvdPkFromHl:vector(packetBytes) ETV
attr interpolationmode none
attr source packetReceivedFromUpper
attr title "packets received from higher layer, vector(packetBytes)"
vector 248 scenario.client1.ppp[2].ppp.queue packetPushed:vector(packetBytes) ETV
attr interpolationmode none
attr title "packet pushed, vector(packetBytes)"
vector 249 scenario.client1.ppp[2].ppp.queue queueLength:vector ETV
attr interpolationmode sample-hold
attr source "count(packetPushed) - count(packetPopped) - count(packetRemoved) - count(packetDropped)"
attr title "queue length, vector"
vector 250 scenario.client1.ppp[2].ppp.queue packetPopped:vector(packetBytes) ETV
attr interpolationmode none
attr title "packet popped, vector(packetBytes)"
vector 251 scenario.client1.ppp[2].ppp.queue queueingTime:vector ETV
attr interpolationmode none
attr source queueingTime(packetPopped)
attr title "queueing times, vector"
attr unit s
vector 252 scenario.client1.ppp[2].ppp txPk:vector(packetBytes) ETV
attr interpolationmode none
attr source packetSentToLower
attr title "packets transmitted, vector(packetBytes)"
vector 253 scenario.client3.ppp[1].ppp rxPkOk:vector(packetBytes) ETV
attr interpolationmode none
attr source rxPkOk
attr title "packets received OK, vector(packetBytes)"
vector 254 scenario.client3.ppp[1].ppp passedUpPk:vector(packetBytes) ETV
attr interpolationmode none
attr source packetSentToUpper
attr title "packets passed to higher layer, vector(packetBytes)"
vector 255 scenario.client3.tcp.conn-42 rcvSeq:vector ETV
attr interpolationmode sample-hold
vector 256 scenario.client3.tcp.conn-42 rcvAck:vector ETV
attr interpolationmode sample-hold
vector 257 scenario.client3.tcp.conn-42 sndWnd:vector ETV
attr interpolationmode sample-hold
vector 258 scenario.client3.tcp.conn-42 unacked:vector ETV
attr interpolationmode sample-hold
vector 259 scenario.client1.tcp.conn-43 rcvSeq:vector ETV
attr interpolationmode sample-hold
vector 260 scenario.client1.tcp.conn-43 rcvAck:vector ETV
attr interpolationmode sample-hold
vector 261 scenario.client1.tcp.conn-43 unacked:vector ETV
attr interpolationmode sample-hold
vector 262 scenario.client1.tcp.conn-43 cwnd:vector ETV
attr interpolationmode sample-hold
vector 263 scenario.client1.tcp.conn-43 ssthresh:vector ETV
attr interpolationmode sample-hold
vector 264 scenario.client1.tcp.conn-43 dupAcks:vector ETV
attr interpolationmode sample-hold
vector 265 scenario.client3.tcp.conn-42 rtt:vector ETV
attr interpolationmode sample-hold
vector 266 scenario.client3.tcp.conn-42 srtt:vector ETV
attr interpolationmode sample-hold
vector 267 scenario.client3.tcp.conn-42 rttvar:vector ETV
attr interpolationmode sample-hold
vector 268 scenario.client3.tcp.conn-42 rto:vector ETV
attr interpolationmode sample-hold
vector 269 scenario.client3.tcp.conn-42 cwnd:vector ETV
attr interpolationmode sample-hold
vector 270 scenario.client3.tcp.conn-42 ssthresh:vector ETV
attr interpolationmode sample-hold
vector 271 scenario.client3.tcp.conn-42 dupAcks:vector ETV
attr interpolationmode sample-hold
vector 272 scenario.client3.tcp.conn-44 tcpRcvQueueBytes:vector ETV
attr interpolationmode sample-hold
vector 273 scenario.client3.tcp.conn-44 rcvAdv:vector ETV
attr interpolationmode sample-hold
vector 274 scenario.client3.tcp.conn-44 rcvWnd:vector ETV
attr interpolationmode sample-hold
vector 275 scenario.client3.tcp.conn-44 sndAck:vector ETV
attr interpolationmode sample-hold
vector 276 scenario.client3.ppp[0].ppp rcvdPkFromHl:vector(packetBytes) ETV
attr interpolationmode none
attr source packetReceivedFromUpper
attr title "packets received from higher layer, vector(packetBytes)"
vector 277 scenario.client3.ppp[0].ppp.queue packetPushed:vector(packetBytes) ETV
attr interpolationmode none
attr title "packet pushed, vector(packetBytes)"
vector 278 scenario.client3.ppp[0].ppp.queue queueLength:vector ETV
attr interpolationmode sample-hold
attr source "count(packetPushed) - count(packetPopped) - count(packetRemoved) - count(packetDropped)"
attr title "queue length, vector"
vector 279 scenario.client3.ppp[0].ppp.queue packetPopped:vector(packetBytes) ETV
attr interpolationmode none
attr title "packet popped, vector(packetBytes)"
vector 280 scenario.client3.ppp[0].ppp.queue queueingTime:vector ETV
attr interpolationmode none
attr source queueingTime(packetPopped)
attr title "queueing times, vector"
attr unit s
vector 281 scenario.client3.ppp[0].ppp txPk:vector(packetBytes) ETV
attr interpolationmode none
attr source packetSentToLower
attr title "packets transmitted, vector(packetBytes)"
vector 282 scenario.client0.ppp[2].ppp rxPkOk:vector(packetBytes) ETV
attr interpolationmode none
attr source rxPkOk
attr title "packets received OK, vector(packetBytes)"
vector 283 scenario.client0.ppp[2].ppp passedUpPk:vector(packetBytes) ETV
attr interpolationmode none
attr source packetSentToUpper
attr title "packets passed to higher layer, vector(packetBytes)"
vector 284 scenario.client0.tcp.conn-45 rcvAdv:vector ETV
attr interpolationmode sample-hold
vector 285 scenario.client0.tcp.conn-45 sndWnd:vector ETV
attr interpolationmode sample-hold
vector 286 scenario.client0.tcp.conn-45 tcpRcvQueueBytes:vector ETV
attr interpolationmode sample-hold
vector 287 scenario.client0.tcp.conn-45 rcvWnd:vector ETV
attr interpolationmode sample-hold
vector 288 scenario.client0.tcp.conn-45 sndAck:vector ETV
attr interpolationmode sample-hold
vector 289 scenario.client0.ppp[2].ppp rcvdPkFromHl:vector(packetBytes) ETV
attr interpolationmode none
attr source packetReceivedFromUpper
attr title "packets received from higher layer, vector(packetBytes)"
vector 290 scenario.client0.ppp[2].ppp.queue packetPushed:vector(packetBytes) ETV
attr interpolationmode none
attr title "packet pushed, vector(packetBytes)"
vector 291 scenario.client0.ppp[2].ppp.queue queueLength:vector ETV
attr interpolationmode sample-hold
attr source "count(packetPushed) - count(packetPopped) - count(packetRemoved) - count(packetDropped)"
attr title "queue length, vector"
vector 292 scenario.client0.ppp[2].ppp.queue packetPopped:vector(packetBytes) ETV
attr interpolationmode none
attr title "packet popped, vector(packetBytes)"
vector 293 scenario.client0.ppp[2].ppp.queue queueingTime:vector ETV
attr interpolationmode none
attr source queueingTime(packetPopped)
attr title "queueing times, vector"
attr unit s
vector 294 scenario.client0.ppp[2].ppp txPk:vector(packetBytes) ETV
attr interpolationmode none
attr source packetSentToLower
attr title "packets transmitted, vector(packetBytes)"
vector 295 scenario.client3.ppp[0].ppp rxPkOk:vector(packetBytes) ETV
attr interpolationmode none
attr source rxPkOk
attr title "packets received OK, vector(packetBytes)"
vector 296 scenario.client3.ppp[0].ppp passedUpPk:vector(packetBytes) ETV
attr interpolationmode none
attr source packetSentToUpper
attr title "packets passed to higher layer, vector(packetBytes)"
vector 297 scenario.client3.tcp.conn-44 rcvSeq:vector ETV
attr interpolationmode sample-hold
vector 298 scenario.client3.tcp.conn-44 rcvAck:vector ETV
attr interpolationmode sample-hold
vector 299 scenario.client3.tcp.conn-44 sndWnd:vector ETV
attr interpolationmode sample-hold
vector 300 scenario.client3.tcp.conn-44 unacked:vector ETV
attr interpolationmode sample-hold
vector 301 scenario.client0.tcp.conn-45 rcvSeq:vector ETV
attr interpolationmode sample-hold
vector 302 scenario.client0.tcp.conn-45 rcvAck:vector ETV
attr interpolationmode sample-hold
vector 303 scenario.client0.tcp.conn-45 unacked:vector ETV
attr interpolationmode sample-hold
vector 304 scenario.client0.tcp.conn-45 cwnd:vector ETV
attr interpolationmode sample-hold
vector 305 scenario.client0.tcp.conn-45 ssthresh:vector ETV
attr interpolationmode sample-hold
vector 306 scenario.client0.tcp.conn-45 dupAcks:vector ETV
attr interpolationmode sample-hold
vector 307 scenario.client3.tcp.conn-44 rtt:vector ETV
attr interpolationmode sample-hold
vector 308 scenario.client3.tcp.conn-44 srtt:vector ETV
attr interpolationmode sample-hold
vector 309 scenario.client3.tcp.conn-44 rttvar:vector ETV
attr interpolationmode sample-hold
vector 310 scenario.client3.tcp.conn-44 rto:vector ETV
attr interpolationmode sample-hold
vector 311 scenario.client3.tcp.conn-44 cwnd:vector ETV
attr interpolationmode sample-hold
vector 312 scenario.client3.tcp.conn-44 ssthresh:vector ETV
attr interpolationmode sample-hold
vector 313 scenario.client3.tcp.conn-44 dupAcks:vector ETV
attr interpolationmode sample-hold
vector 314 scenario.client3.tcp.conn-46 tcpRcvQueueBytes:vector ETV
attr interpolationmode sample-hold
vector 315 scenario.client3.tcp.conn-46 rcvAdv:vector ETV
attr interpolationmode sample-hold
vector 316 scenario.client3.tcp.conn-46 rcvWnd:vector ETV
attr interpolationmode sample-hold
vector 317 scenario.client3.tcp.conn-46 sndAck:vector ETV
attr interpolationmode sample-hold
vector 318 scenario.client3.ppp[2].ppp rcvdPkFromHl:vector(packetBytes) ETV
attr interpolationmode none
attr source packetReceivedFromUpper
attr title "packets received from higher layer, vector(packetBytes)"
vector 319 scenario.client3.ppp[2].ppp.queue packetPushed:vector(packetBytes) ETV
attr interpolationmode none
attr title "packet pushed, vector(packetBytes)"
vector 320 scenario.client3.ppp[2].ppp.queue queueLength:vector ETV
attr interpolationmode sample-hold
attr source "count(packetPushed) - count(packetPopped) - count(packetRemoved) - count(packetDropped)"
attr title "queue length, vector"
vector 321 scenario.client3.ppp[2].ppp.queue packetPopped:vector(packetBytes) ETV
attr interpolationmode none
attr title "packet popped, vector(packetBytes)"
vector 322 scenario.client3.ppp[2].ppp.queue queueingTime:vector ETV
attr interpolationmode none
attr source queueingTime(packetPopped)
attr title "queueing times, vector"
attr unit s
vector 323 scenario.client3.ppp[2].ppp txPk:vector(packetBytes) ETV
attr interpolationmode none
attr source packetSentToLower
attr title "packets transmitted, vector(packetBytes)"
vector 324 scenario.client2.ppp[2].ppp rxPkOk:vector(packetBytes) ETV
attr interpolationmode none
attr source rxPkOk
attr title "packets received OK, vector(packetBytes)"
vector 325 scenario.client2.ppp[2].ppp passedUpPk:vector(packetBytes) ETV
attr interpolationmode none
attr source packetSentToUpper
attr title "packets passed to higher layer, vector(packetBytes)"
vector 326 scenario.client2.tcp.conn-47 rcvAdv:vector ETV
attr interpolationmode sample-hold
vector 327 scenario.client2.tcp.conn-47 sndWnd:vector ETV
attr interpolationmode sample-hold
vector 328 scenario.client2.tcp.conn-47 tcpRcvQueueBytes:vector ETV
attr interpolationmode sample-hold
vector 329 scenario.client2.tcp.conn-47 rcvWnd:vector ETV
attr interpolationmode sample-hold
vector 330 scenario.client2.tcp.conn-47 sndAck:vector ETV
attr interpolationmode sample-hold
vector 331 scenario.client2.ppp[2].ppp rcvdPkFromHl:vector(packetBytes) ETV
attr interpolationmode none
attr source packetReceivedFromUpper
attr title "packets received from higher layer, vector(packetBytes)"
vector 332 scenario.client2.ppp[2].ppp.queue packetPushed:vector(packetBytes) ETV
attr interpolationmode none
attr title "packet pushed, vector(packetBytes)"
vector 333 scenario.client2.ppp[2].ppp.queue queueLength:vector ETV
attr interpolationmode sample-hold
attr source "count(packetPushed) - count(packetPopped) - count(packetRemoved) - count(packetDropped)"
attr title "queue length, vector"
vector 334 scenario.client2.ppp[2].ppp.queue packetPopped:vector(packetBytes) ETV
attr interpolationmode none
attr title "packet popped, vector(packetBytes)"
vector 335 scenario.client2.ppp[2].ppp.queue queueingTime:vector ETV
attr interpolationmode none
attr source queueingTime(packetPopped)
attr title "queueing times, vector"
attr unit s
vector 336 scenario.client2.ppp[2].ppp txPk:vector(packetBytes) ETV
attr interpolationmode none
attr source packetSentToLower
attr title "packets transmitted, vector(packetBytes)"
vector 337 scenario.client3.ppp[2].ppp rxPkOk:vector(packetBytes) ETV
attr interpolationmode none
attr source rxPkOk
attr title "packets received OK, vector(packetBytes)"
vector 338 scenario.client3.ppp[2].ppp passedUpPk:vector(packetBytes) ETV
attr interpolationmode none
attr source packetSentToUpper
attr title "packets passed to higher layer, vector(packetBytes)"
vector 339 scenario.client3.tcp.conn-46 rcvSeq:vector ETV
attr interpolationmode sample-hold
vector 340 scenario.client3.tcp.conn-46 rcvAck:vector ETV
attr interpolationmode sample-hold
vector 341 scenario.client3.tcp.conn-46 sndWnd:vector ETV
attr interpolationmode sample-hold
vector 342 scenario.client3.tcp.conn-46 unacked:vector ETV
attr interpolationmode sample-hold
vector 343 scenario.client2.tcp.conn-47 rcvSeq:vector ETV
attr interpolationmode sample-hold
vector 344 scenario.client2.tcp.conn-47 rcvAck:vector ETV
attr interpolationmode sample-hold
vector 345 scenario.client2.tcp.conn-47 unacked:vector ETV
attr interpolationmode sample-hold
vector 346 scenario.client2.tcp.conn-47 cwnd:vector ETV
attr interpolationmode sample-hold
vector 347 scenario.client2.tcp.conn-47 ssthresh:vector ETV
attr interpolationmode sample-hold
vector 348 scenario.client2.tcp.conn-47 dupAcks:vector ETV
attr interpolationmode sample-hold
vector 349 scenario.client3.tcp.conn-46 rtt:vector ETV
attr interpolationmode sample-hold
vector 350 scenario.client3.tcp.conn-46 srtt:vector ETV
attr interpolationmode sample-hold
vector 351 scenario.client3.tcp.conn-46 rttvar:vector ETV
attr interpolationmode sample-hold
vector 352 scenario.client3.tcp.conn-46 rto:vector ETV
attr interpolationmode sample-hold
vector 353 scenario.client3.tcp.conn-46 cwnd:vector ETV
attr interpolationmode sample-hold
vector 354 scenario.client3.tcp.conn-46 ssthresh:vector ETV
attr interpolationmode sample-hold
vector 355 scenario.client3.tcp.conn-46 dupAcks:vector ETV
attr interpolationmode sample-hold
vector 356 scenario.client1.tcp.conn-48 tcpRcvQueueBytes:vector ETV
attr interpolationmode sample-hold
vector 357 scenario.client1.tcp.conn-48 rcvAdv:vector ETV
attr interpolationmode sample-hold
vector 358 scenario.client1.tcp.conn-48 rcvWnd:vector ETV
attr interpolationmode sample-hold
vector 359 scenario.client1.tcp.conn-48 sndAck:vector ETV
attr interpolationmode sample-hold
vector 360 scenario.client3.tcp.conn-28 rcvSeq:vector ETV
attr interpolationmode sample-hold
vector 361 scenario.client3.tcp.conn-28 rcvAck:vector ETV
attr interpolationmode sample-hold
vector 362 scenario.client3.tcp.conn-49 rcvAdv:vector ETV
attr interpolationmode sample-hold
vector 363 scenario.client3.tcp.conn-49 sndWnd:vector ETV
attr interpolationmode sample-hold
vector 364 scenario.client3.tcp.conn-49 tcpRcvQueueBytes:vector ETV
attr interpolationmode sample-hold
vector 365 scenario.client3.tcp.conn-49 rcvWnd:vector ETV
attr interpolationmode sample-hold
vector 366 scenario.client3.tcp.conn-49 sndAck:vector ETV
attr interpolationmode sample-hold
vector 367 scenario.client1.tcp.conn-48 rcvSeq:vector ETV
attr interpolationmode sample-hold
vector 368 scenario.client1.tcp.conn-48 rcvAck:vector ETV
attr interpolationmode sample-hold
vector 369 scenario.client1.tcp.conn-48 sndWnd:vector ETV
attr interpolationmode sample-hold
vector 370 scenario.client1.tcp.conn-48 unacked:vector ETV
attr interpolationmode sample-hold
vector 371 scenario.client3.tcp.conn-49 rcvSeq:vector ETV
attr interpolationmode sample-hold
vector 372 scenario.client3.tcp.conn-49 rcvAck:vector ETV
attr interpolationmode sample-hold
vector 373 scenario.client3.tcp.conn-49 unacked:vector ETV
attr interpolationmode sample-hold
vector 374 scenario.client3.tcp.conn-49 cwnd:vector ETV
attr interpolationmode sample-hold
vector 375 scenario.client3.tcp.conn-49 ssthresh:vector ETV
attr interpolationmode sample-hold
vector 376 scenario.client3.tcp.conn-49 dupAcks:vector ETV
attr interpolationmode sample-hold
vector 377 scenario.client1.tcp.conn-48 rtt:vector ETV
attr interpolationmode sample-hold
vector 378 scenario.client1.tcp.conn-48 srtt:vector ETV
attr interpolationmode sample-hold
vector 379 scenario.client1.tcp.conn-48 rttvar:vector ETV
attr interpolationmode sample-hold
vector 380 scenario.client1.tcp.conn-48 rto:vector ETV
attr interpolationmode sample-hold
vector 381 scenario.client1.tcp.conn-48 cwnd:vector ETV
attr interpolationmode sample-hold
vector 382 scenario.client1.tcp.conn-48 ssthresh:vector ETV
attr interpolationmode sample-hold
vector 383 scenario.client1.tcp.conn-48 dupAcks:vector ETV
attr interpolationmode sample-hold
vector 384 scenario.client2.tcp.conn-50 tcpRcvQueueBytes:vector ETV
attr interpolationmode sample-hold
vector 385 scenario.client2.tcp.conn-50 rcvAdv:vector ETV
attr interpolationmode sample-hold
vector 386 scenario.client2.tcp.conn-50 rcvWnd:vector ETV
attr interpolationmode sample-hold
vector 387 scenario.client2.tcp.conn-50 sndAck:vector ETV
attr interpolationmode sample-hold
vector 388 scenario.client3.tcp.conn-51 rcvAdv:vector ETV
attr interpolationmode sample-hold
vector 389 scenario.client3.tcp.conn-51 sndWnd:vector ETV
attr interpolationmode sample-hold
vector 390 scenario.client3.tcp.conn-51 tcpRcvQueueBytes:vector ETV
attr interpolationmode sample-hold
vector 391 scenario.client3.tcp.conn-51 rcvWnd:vector ETV
attr interpolationmode sample-hold
vector 392 scenario.client3.tcp.conn-51 sndAck:vector ETV
attr interpolationmode sample-hold
vector 393 scenario.client2.tcp.conn-50 rcvSeq:vector ETV
attr interpolationmode sample-hold
vector 394 scenario.client2.tcp.conn-50 rcvAck:vector ETV
attr interpolationmode sample-hold
vector 395 scenario.client2.tcp.conn-50 sndWnd:vector ETV
attr interpolationmode sample-hold
vector 396 scenario.client2.tcp.conn-50 unacked:vector ETV
attr interpolationmode sample-hold
vector 397 scenario.client3.tcp.conn-51 rcvSeq:vector ETV
attr interpolationmode sample-hold
vector 398 scenario.client3.tcp.conn-51 rcvAck:vector ETV
attr interpolationmode sample-hold
vector 399 scenario.client3.tcp.conn-51 unacked:vector ETV
attr interpolationmode sample-hold
vector 400 scenario.client3.tcp.conn-51 cwnd:vector ETV
attr interpolationmode sample-hold
vector 401 scenario.client3.tcp.conn-51 ssthresh:vector ETV
attr interpolationmode sample-hold
vector 402 scenario.client3.tcp.conn-51 dupAcks:vector ETV
attr interpolationmode sample-hold
vector 403 scenario.client2.tcp.conn-50 rtt:vector ETV
attr interpolationmode sample-hold
vector 404 scenario.client2.tcp.conn-50 srtt:vector ETV
attr interpolationmode sample-hold
vector 405 scenario.client2.tcp.conn-50 rttvar:vector ETV
attr interpolationmode sample-hold
vector 406 scenario.client2.tcp.conn-50 rto:vector ETV
attr interpolationmode sample-hold
vector 407 scenario.client2.tcp.conn-50 cwnd:vector ETV
attr interpolationmode sample-hold
vector 408 scenario.client2.tcp.conn-50 ssthresh:vector ETV
attr interpolationmode sample-hold
vector 409 scenario.client2.tcp.conn-50 dupAcks:vector ETV
attr interpolationmode sample-hold
vector 410 scenario.client0.tcp.conn-52 tcpRcvQueueBytes:vector ETV
attr interpolationmode sample-hold
vector 411 scenario.client0.tcp.conn-52 rcvAdv:vector ETV
attr interpolationmode sample-hold
vector 412 scenario.client0.tcp.conn-52 rcvWnd:vector ETV
attr interpolationmode sample-hold
vector 413 scenario.client0.tcp.conn-52 sndAck:vector ETV
attr interpolationmode sample-hold
vector 414 scenario.client3.tcp.conn-53 rcvAdv:vector ETV
attr interpolationmode sample-hold
vector 415 scenario.client3.tcp.conn-53 sndWnd:vector ETV
attr interpolationmode sample-hold
vector 416 scenario.client3.tcp.conn-53 tcpRcvQueueBytes:vector ETV
attr interpolationmode sample-hold
vector 417 scenario.client3.tcp.conn-53 rcvWnd:vector ETV
attr interpolationmode sample-hold
vector 418 scenario.client3.tcp.conn-53 sndAck:vector ETV
attr interpolationmode sample-hold
vector 419 scenario.client0.tcp.conn-52 rcvSeq:vector ETV
attr interpolationmode sample-hold
vector 420 scenario.client0.tcp.conn-52 rcvAck:vector ETV
attr interpolationmode sample-hold
vector 421 scenario.client0.tcp.conn-52 sndWnd:vector ETV
attr interpolationmode sample-hold
vector 422 scenario.client0.tcp.conn-52 unacked:vector ETV
attr interpolationmode sample-hold
vector 423 scenario.client3.tcp.conn-53 rcvSeq:vector ETV
attr interpolationmode sample-hold
vector 424 scenario.client3.tcp.conn-53 rcvAck:vector ETV
attr interpolationmode sample-hold
vector 425 scenario.client3.tcp.conn-53 unacked:vector ETV
attr interpolationmode sample-hold
vector 426 scenario.client3.tcp.conn-53 cwnd:vector ETV
attr interpolationmode sample-hold
vector 427 scenario.client3.tcp.conn-53 ssthresh:vector ETV
attr interpolationmode sample-hold
vector 428 scenario.client3.tcp.conn-53 dupAcks:vector ETV
attr interpolationmode sample-hold
vector 429 scenario.client0.tcp.conn-52 rtt:vector ETV
attr interpolationmode sample-hold
vector 430 scenario.client0.tcp.conn-52 srtt:vector ETV
attr interpolationmode sample-hold
vector 431 scenario.client0.tcp.conn-52 rttvar:vector ETV
attr interpolationmode sample-hold
vector 432 scenario.client0.tcp.conn-52 rto:vector ETV
attr interpolationmode sample-hold
vector 433 scenario.client0.tcp.conn-52 cwnd:vector ETV
attr interpolationmode sample-hold
vector 434 scenario.client0.tcp.conn-52 ssthresh:vector ETV
attr interpolationmode sample-hold
vector 435 scenario.client0.tcp.conn-52 dupAcks:vector ETV
attr interpolationmode sample-hold
vector 436 scenario.client4.tcp.conn-54 tcpRcvQueueBytes:vector ETV
attr interpolationmode sample-hold
vector 437 scenario.client4.tcp.conn-54 rcvAdv:vector ETV
attr interpolationmode sample-hold
vector 438 scenario.client4.tcp.conn-54 rcvWnd:vector ETV
attr interpolationmode sample-hold
vector 439 scenario.client4.tcp.conn-54 sndAck:vector ETV
attr interpolationmode sample-hold
vector 440 scenario.client4.ppp[0].ppp rcvdPkFromHl:vector(packetBytes) ETV
attr interpolationmode none
attr source packetReceivedFromUpper
attr title "packets received from higher layer, vector(packetBytes)"
vector 441 scenario.client4.ppp[0].ppp.queue packetPushed:vector(packetBytes) ETV
attr interpolationmode none
attr title "packet pushed, vector(packetBytes)"
vector 442 scenario.client4.ppp[0].ppp.queue queueLength:vector ETV
attr interpolationmode sample-hold
attr source "count(packetPushed) - count(packetPopped) - count(packetRemoved) - count(packetDropped)"
attr title "queue length, vector"
vector 443 scenario.client4.ppp[0].ppp.queue packetPopped:vector(packetBytes) ETV
attr interpolationmode none
attr title "packet popped, vector(packetBytes)"
vector 444 scenario.client4.ppp[0].ppp.queue queueingTime:vector ETV
attr interpolationmode none
attr source queueingTime(packetPopped)
attr title "queueing times, vector"
attr unit s
vector 445 scenario.client4.ppp[0].ppp txPk:vector(packetBytes) ETV
attr interpolationmode none
attr source packetSentToLower
attr title "packets transmitted, vector(packetBytes)"
vector 446 scenario.client0.ppp[3].ppp rxPkOk:vector(packetBytes) ETV
attr interpolationmode none
attr source rxPkOk
attr title "packets received OK, vector(packetBytes)"
vector 447 scenario.client0.ppp[3].ppp passedUpPk:vector(packetBytes) ETV
attr interpolationmode none
attr source packetSentToUpper
attr title "packets passed to higher layer, vector(packetBytes)"
vector 448 scenario.client0.tcp.conn-55 rcvAdv:vector ETV
attr interpolationmode sample-hold
vector 449 scenario.client0.tcp.conn-55 sndWnd:vector ETV
attr interpolationmode sample-hold
vector 450 scenario.client0.tcp.conn-55 tcpRcvQueueBytes:vector ETV
attr interpolationmode sample-hold
vector 451 scenario.client0.tcp.conn-55 rcvWnd:vector ETV
attr interpolationmode sample-hold
vector 452 scenario.client0.tcp.conn-55 sndAck:vector ETV
attr interpolationmode sample-hold
vector 453 scenario.client0.ppp[3].ppp rcvdPkFromHl:vector(packetBytes) ETV
attr interpolationmode none
attr source packetReceivedFromUpper
attr title "packets received from higher layer, vector(packetBytes)"
vector 454 scenario.client0.ppp[3].ppp.queue packetPushed:vector(packetBytes) ETV
attr interpolationmode none
attr title "packet pushed, vector(packetBytes)"
vector 455 scenario.client0.ppp[3].ppp.queue queueLength:vector ETV
attr interpolationmode sample-hold
attr source "count(packetPushed) - count(packetPopped) - count(packetRemoved) - count(packetDropped)"
attr title "queue length, vector"
vector 456 scenario.client0.ppp[3].ppp.queue packetPopped:vector(packetBytes) ETV
attr interpolationmode none
attr title "packet popped, vector(packetBytes)"
vector 457 scenario.client0.ppp[3].ppp.queue queueingTime:vector ETV
attr interpolationmode none
attr source queueingTime(packetPopped)
attr title "queueing times, vector"
attr unit s
vector 458 scenario.client0.ppp[3].ppp txPk:vector(packetBytes) ETV
attr interpolationmode none
attr source packetSentToLower
attr title "packets transmitted, vector(packetBytes)"
vector 459 scenario.client4.ppp[0].ppp rxPkOk:vector(packetBytes) ETV
attr interpolationmode none
attr source rxPkOk
attr title "packets received OK, vector(packetBytes)"
vector 460 scenario.client4.ppp[0].ppp passedUpPk:vector(packetBytes) ETV
attr interpolationmode none
attr source packetSentToUpper
attr title "packets passed to higher layer, vector(packetBytes)"
vector 461 scenario.client4.tcp.conn-54 rcvSeq:vector ETV
attr interpolationmode sample-hold
vector 462 scenario.client4.tcp.conn-54 rcvAck:vector ETV
attr interpolationmode sample-hold
vector 463 scenario.client4.tcp.conn-54 sndWnd:vector ETV
attr interpolationmode sample-hold
vector 464 scenario.client4.tcp.conn-54 unacked:vector ETV
attr interpolationmode sample-hold
vector 465 scenario.client0.tcp.conn-55 rcvSeq:vector ETV
attr interpolationmode sample-hold
vector 466 scenario.client0.tcp.conn-55 rcvAck:vector ETV
attr interpolationmode sample-hold
vector 467 scenario.client0.tcp.conn-55 unacked:vector ETV
attr interpolationmode sample-hold
vector 468 scenario.client0.tcp.conn-55 cwnd:vector ETV
attr interpolationmode sample-hold
vector 469 scenario.client0.tcp.conn-55 ssthresh:vector ETV
attr interpolationmode sample-hold
vector 470 scenario.client0.tcp.conn-55 dupAcks:vector ETV
attr interpolationmode sample-hold
vector 471 scenario.client4.tcp.conn-54 rtt:vector ETV
attr interpolationmode sample-hold
vector 472 scenario.client4.tcp.conn-54 srtt:vector ETV
attr interpolationmode sample-hold
vector 473 scenario.client4.tcp.conn-54 rttvar:vector ETV
attr interpolationmode sample-hold
vector 474 scenario.client4.tcp.conn-54 rto:vector ETV
attr interpolationmode sample-hold
vector 475 scenario.client4.tcp.conn-54 cwnd:vector ETV
attr interpolationmode sample-hold
vector 476 scenario.client4.tcp.conn-54 ssthresh:vector ETV
attr interpolationmode sample-hold
vector 477 scenario.client4.tcp.conn-54 dupAcks:vector ETV
attr interpolationmode sample-hold
vector 478 scenario.client4.tcp.conn-56 tcpRcvQueueBytes:vector ETV
attr interpolationmode sample-hold
vector 479 scenario.client4.tcp.conn-56 rcvAdv:vector ETV
attr interpolationmode sample-hold
vector 480 scenario.client4.tcp.conn-56 rcvWnd:vector ETV
attr interpolationmode sample-hold
vector 481 scenario.client4.tcp.conn-56 sndAck:vector ETV
attr interpolationmode sample-hold
vector 482 scenario.client4.ppp[1].ppp rcvdPkFromHl:vector(packetBytes) ETV
attr interpolationmode none
attr source packetReceivedFromUpper
attr title "packets received from higher layer, vector(packetBytes)"
vector 483 scenario.client4.ppp[1].ppp.queue packetPushed:vector(packetBytes) ETV
attr interpolationmode none
attr title "packet pushed, vector(packetBytes)"
vector 484 scenario.client4.ppp[1].ppp.queue queueLength:vector ETV
attr interpolationmode sample-hold
attr source "count(packetPushed) - count(packetPopped) - count(packetRemoved) - count(packetDropped)"
attr title "queue length, vector"
vector 485 scenario.client4.ppp[1].ppp.queue packetPopped:vector(packetBytes) ETV
attr interpolationmode none
attr title "packet popped, vector(packetBytes)"
vector 486 scenario.client4.ppp[1].ppp.queue queueingTime:vector ETV
attr interpolationmode none
attr source queueingTime(packetPopped)
attr title "queueing times, vector"
attr unit s
vector 487 scenario.client4.ppp[1].ppp txPk:vector(packetBytes) ETV
attr interpolationmode none
attr source packetSentToLower
attr title "packets transmitted, vector(packetBytes)"
vector 488 scenario.client1.ppp[3].ppp rxPkOk:vector(packetBytes) ETV
attr interpolationmode none
attr source rxPkOk
attr title "packets received OK, vector(packetBytes)"
vector 489 scenario.client1.ppp[3].ppp passedUpPk:vector(packetBytes) ETV
attr interpolationmode none
attr source packetSentToUpper
attr title "packets passed to higher layer, vector(packetBytes)"
vector 490 scenario.client1.tcp.conn-57 rcvAdv:vector ETV
attr interpolationmode sample-hold
vector 491 scenario.client1.tcp.conn-57 sndWnd:vector ETV
attr interpolationmode sample-hold
vector 492 scenario.client1.tcp.conn-57 tcpRcvQueueBytes:vector ETV
attr interpolationmode sample-hold
vector 493 scenario.client1.tcp.conn-57 rcvWnd:vector ETV
attr interpolationmode sample-hold
vector 494 scenario.client1.tcp.conn-57 sndAck:vector ETV
attr interpolationmode sample-hold
vector 495 scenario.client1.ppp[3].ppp rcvdPkFromHl:vector(packetBytes) ETV
attr interpolationmode none
attr source packetReceivedFromUpper
attr title "packets received from higher layer, vector(packetBytes)"
vector 496 scenario.client1.ppp[3].ppp.queue packetPushed:vector(packetBytes) ETV
attr interpolationmode none
attr title "packet pushed, vector(packetBytes)"
vector 497 scenario.client1.ppp[3].ppp.queue queueLength:vector ETV
attr interpolationmode sample-hold
attr source "count(packetPushed) - count(packetPopped) - count(packetRemoved) - count(packetDropped)"
attr title "queue length, vector"
vector 498 scenario.client1.ppp[3].ppp.queue packetPopped:vector(packetBytes) ETV
attr interpolationmode none
attr title "packet popped, vector(packetBytes)"
vector 499 scenario.client1.ppp[3].ppp.queue queueingTime:vector ETV
attr interpolationmode none
attr source queueingTime(packetPopped)
attr title "queueing times, vector"
attr unit s
vector 500 scenario.client1.ppp[3].ppp txPk:vector(packetBytes) ETV
attr interpolationmode none
attr source packetSentToLower
attr title "packets transmitted, vector(packetBytes)"
vector 501 scenario.client4.ppp[1].ppp rxPkOk:vector(packetBytes) ETV
attr interpolationmode none
attr source rxPkOk
attr title "packets received OK, vector(packetBytes)"
vector 502 scenario.client4.ppp[1].ppp passedUpPk:vector(packetBytes) ETV
attr interpolationmode none
attr source packetSentToUpper
attr title "packets passed to higher layer, vector(packetBytes)"
vector 503 scenario.client4.tcp.conn-56 rcvSeq:vector ETV
attr interpolationmode sample-hold
vector 504 scenario.client4.tcp.conn-56 rcvAck:vector ETV
attr interpolationmode sample-hold
vector 505 scenario.client4.tcp.conn-56 sndWnd:vector ETV
attr interpolationmode sample-hold
vector 506 scenario.client4.tcp.conn-56 unacked:vector ETV
attr interpolationmode sample-hold
vector 507 scenario.client1.tcp.conn-57 rcvSeq:vector ETV
attr interpolationmode sample-hold
vector 508 scenario.client1.tcp.conn-57 rcvAck:vector ETV
attr interpolationmode sample-hold
vector 509 scenario.client1.tcp.conn-57 unacked:vector ETV
attr interpolationmode sample-hold
vector 510 scenario.client1.tcp.conn-57 cwnd:vector ETV
attr interpolationmode sample-hold
vector 511 scenario.client1.tcp.conn-57 ssthresh:vector ETV
attr interpolationmode sample-hold
vector 512 scenario.client1.tcp.conn-57 dupAcks:vector ETV
attr interpolationmode sample-hold
vector 513 scenario.client4.tcp.conn-56 rtt:vector ETV
attr interpolationmode sample-hold
vector 514 scenario.client4.tcp.conn-56 srtt:vector ETV
attr interpolationmode sample-hold
vector 515 scenario.client4.tcp.conn-56 rttvar:vector ETV
attr interpolationmode sample-hold
vector 516 scenario.client4.tcp.conn-56 rto:vector ETV
attr interpolationmode sample-hold
vector 517 scenario.client4.tcp.conn-56 cwnd:vector ETV
attr interpolationmode sample-hold
vector 518 scenario.client4.tcp.conn-56 ssthresh:vector ETV
attr interpolationmode sample-hold
vector 519 scenario.client4.tcp.conn-56 dupAcks:vector ETV
attr interpolationmode sample-hold
vector 520 scenario.client4.tcp.conn-58 tcpRcvQueueBytes:vector ETV
attr interpolationmode sample-hold
vector 521 scenario.client4.tcp.conn-58 rcvAdv:vector ETV
attr interpolationmode sample-hold
vector 522 scenario.client4.tcp.conn-58 rcvWnd:vector ETV
attr interpolationmode sample-hold
vector 523 scenario.client4.tcp.conn-58 sndAck:vector ETV
attr interpolationmode sample-hold
vector 524 scenario.client4.ppp[2].ppp rcvdPkFromHl:vector(packetBytes) ETV
attr interpolationmode none
attr source packetReceivedFromUpper
attr title "packets received from higher layer, vector(packetBytes)"
vector 525 scenario.client4.ppp[2].ppp.queue packetPushed:vector(packetBytes) ETV
attr interpolationmode none
attr title "packet pushed, vector(packetBytes)"
vector 526 scenario.client4.ppp[2].ppp.queue queueLength:vector ETV
attr interpolationmode sample-hold
attr source "count(packetPushed) - count(packetPopped) - count(packetRemoved) - count(packetDropped)"
attr title "queue length, vector"
vector 527 scenario.client4.ppp[2].ppp.queue packetPopped:vector(packetBytes) ETV
attr interpolationmode none
attr title "packet popped, vector(packetBytes)"
vector 528 scenario.client4.ppp[2].ppp.queue queueingTime:vector ETV
attr interpolationmode none
attr source queueingTime(packetPopped)
attr title "queueing times, vector"
attr unit s
vector 529 scenario.client4.ppp[2].ppp txPk:vector(packetBytes) ETV
attr interpolationmode none
attr source packetSentToLower
attr title "packets transmitted, vector(packetBytes)"
vector 530 scenario.client2.ppp[3].ppp rxPkOk:vector(packetBytes) ETV
attr interpolationmode none
attr source rxPkOk
attr title "packets received OK, vector(packetBytes)"
vector 531 scenario.client2.ppp[3].ppp passedUpPk:vector(packetBytes) ETV
attr interpolationmode none
attr source packetSentToUpper
attr title "packets passed to higher layer, vector(packetBytes)"
vector 532 scenario.client2.tcp.conn-59 rcvAdv:vector ETV
attr interpolationmode sample-hold
vector 533 scenario.client2.tcp.conn-59 sndWnd:vector ETV
attr interpolationmode sample-hold
vector 534 scenario.client2.tcp.conn-59 tcpRcvQueueBytes:vector ETV
attr interpolationmode sample-hold
vector 535 scenario.client2.tcp.conn-59 rcvWnd:vector ETV
attr interpolationmode sample-hold
vector 536 scenario.client2.tcp.conn-59 sndAck:vector ETV
attr interpolationmode sample-hold
vector 537 scenario.client2.ppp[3].ppp rcvdPkFromHl:vector(packetBytes) ETV
attr interpolationmode none
attr source packetReceivedFromUpper
attr title "packets received from higher layer, vector(packetBytes)"
vector 538 scenario.client2.ppp[3].ppp.queue packetPushed:vector(packetBytes) ETV
attr interpolationmode none
attr title "packet pushed, vector(packetBytes)"
vector 539 scenario.client2.ppp[3].ppp.queue queueLength:vector ETV
attr interpolationmode sample-hold
attr source "count(packetPushed) - count(packetPopped) - count(packetRemoved) - count(packetDropped)"
attr title "queue length, vector"
vector 540 scenario.client2.ppp[3].ppp.queue packetPopped:vector(packetBytes) ETV
attr interpolationmode none
attr title "packet popped, vector(packetBytes)"
vector 541 scenario.client2.ppp[3].ppp.queue queueingTime:vector ETV
attr interpolationmode none
attr source queueingTime(packetPopped)
attr title "queueing times, vector"
attr unit s
vector 542 scenario.client2.ppp[3].ppp txPk:vector(packetBytes) ETV
attr interpolationmode none
attr source packetSentToLower
attr title "packets transmitted, vector(packetBytes)"
vector 543 scenario.client4.ppp[2].ppp rxPkOk:vector(packetBytes) ETV
attr interpolationmode none
attr source rxPkOk
attr title "packets received OK, vector(packetBytes)"
vector 544 scenario.client4.ppp[2].ppp passedUpPk:vector(packetBytes) ETV
attr interpolationmode none
attr source packetSentToUpper
attr title "packets passed to higher layer, vector(packetBytes)"
vector 545 scenario.client4.tcp.conn-58 rcvSeq:vector ETV
attr interpolationmode sample-hold
vector 546 scenario.client4.tcp.conn-58 rcvAck:vector ETV
attr interpolationmode sample-hold
vector 547 scenario.client4.tcp.conn-58 sndWnd:vector ETV
attr interpolationmode sample-hold
vector 548 scenario.client4.tcp.conn-58 unacked:vector ETV
attr interpolationmode sample-hold
vector 549 scenario.client2.tcp.conn-59 rcvSeq:vector ETV
attr interpolationmode sample-hold
vector 550 scenario.client2.tcp.conn-59 rcvAck:vector ETV
attr interpolationmode sample-hold
vector 551 scenario.client2.tcp.conn-59 unacked:vector ETV
attr interpolationmode sample-hold
vector 552 scenario.client2.tcp.conn-59 cwnd:vector ETV
attr interpolationmode sample-hold
vector 553 scenario.client2.tcp.conn-59 ssthresh:vector ETV
attr interpolationmode sample-hold
vector 554 scenario.client2.tcp.conn-59 dupAcks:vector ETV
attr interpolationmode sample-hold
vector 555 scenario.client4.tcp.conn-58 rtt:vector ETV
attr interpolationmode sample-hold
vector 556 scenario.client4.tcp.conn-58 srtt:vector ETV
attr interpolationmode sample-hold
vector 557 scenario.client4.tcp.conn-58 rttvar:vector ETV
attr interpolationmode sample-hold
vector 558 scenario.client4.tcp.conn-58 rto:vector ETV
attr interpolationmode sample-hold
vector 559 scenario.client4.tcp.conn-58 cwnd:vector ETV
attr interpolationmode sample-hold
vector 560 scenario.client4.tcp.conn-58 ssthresh:vector ETV
attr interpolationmode sample-hold
vector 561 scenario.client4.tcp.conn-58 dupAcks:vector ETV
attr interpolationmode sample-hold
vector 562 scenario.client2.tcp.conn-60 tcpRcvQueueBytes:vector ETV
attr interpolationmode sample-hold
vector 563 scenario.client2.tcp.conn-60 rcvAdv:vector ETV
attr interpolationmode sample-hold
vector 564 scenario.client2.tcp.conn-60 rcvWnd:vector ETV
attr interpolationmode sample-hold
vector 565 scenario.client2.tcp.conn-60 sndAck:vector ETV
attr interpolationmode sample-hold
vector 566 scenario.client4.tcp.conn-29 rcvSeq:vector ETV
attr interpolationmode sample-hold
vector 567 scenario.client4.tcp.conn-29 rcvAck:vector ETV
attr interpolationmode sample-hold
vector 568 scenario.client4.tcp.conn-61 rcvAdv:vector ETV
attr interpolationmode sample-hold
vector 569 scenario.client4.tcp.conn-61 sndWnd:vector ETV
attr interpolationmode sample-hold
vector 570 scenario.client4.tcp.conn-61 tcpRcvQueueBytes:vector ETV
attr interpolationmode sample-hold
vector 571 scenario.client4.tcp.conn-61 rcvWnd:vector ETV
attr interpolationmode sample-hold
vector 572 scenario.client4.tcp.conn-61 sndAck:vector ETV
attr interpolationmode sample-hold
vector 573 scenario.client2.tcp.conn-60 rcvSeq:vector ETV
attr interpolationmode sample-hold
vector 574 scenario.client2.tcp.conn-60 rcvAck:vector ETV
attr interpolationmode sample-hold
vector 575 scenario.client2.tcp.conn-60 sndWnd:vector ETV
attr interpolationmode sample-hold
vector 576 scenario.client2.tcp.conn-60 unacked:vector ETV
attr interpolationmode sample-hold
vector 577 scenario.client4.tcp.conn-61 rcvSeq:vector ETV
attr interpolationmode sample-hold
vector 578 scenario.client4.tcp.conn-61 rcvAck:vector ETV
attr interpolationmode sample-hold
vector 579 scenario.client4.tcp.conn-61 unacked:vector ETV
attr interpolationmode sample-hold
vector 580 scenario.client4.tcp.conn-61 cwnd:vector ETV
attr interpolationmode sample-hold
vector 581 scenario.client4.tcp.conn-61 ssthresh:vector ETV
attr interpolationmode sample-hold
vector 582 scenario.client4.tcp.conn-61 dupAcks:vector ETV
attr interpolationmode sample-hold
vector 583 scenario.client2.tcp.conn-60 rtt:vector ETV
attr interpolationmode sample-hold
vector 584 scenario.client2.tcp.conn-60 srtt:vector ETV
attr interpolationmode sample-hold
vector 585 scenario.client2.tcp.conn-60 rttvar:vector ETV
attr interpolationmode sample-hold
vector 586 scenario.client2.tcp.conn-60 rto:vector ETV
attr interpolationmode sample-hold
vector 587 scenario.client2.tcp.conn-60 cwnd:vector ETV
attr interpolationmode sample-hold
vector 588 scenario.client2.tcp.conn-60 ssthresh:vector ETV
attr interpolationmode sample-hold
vector 589 scenario.client2.tcp.conn-60 dupAcks:vector ETV
attr interpolationmode sample-hold
vector 590 scenario.client0.tcp.conn-62 tcpRcvQueueBytes:vector ETV
attr interpolationmode sample-hold
vector 591 scenario.client0.tcp.conn-62 rcvAdv:vector ETV
attr interpolationmode sample-hold
vector 592 scenario.client0.tcp.conn-62 rcvWnd:vector ETV
attr interpolationmode sample-hold
vector 593 scenario.client0.tcp.conn-62 sndAck:vector ETV
attr interpolationmode sample-hold
vector 594 scenario.client4.tcp.conn-63 rcvAdv:vector ETV
attr interpolationmode sample-hold
vector 595 scenario.client4.tcp.conn-63 sndWnd:vector ETV
attr interpolationmode sample-hold
vector 596 scenario.client4.tcp.conn-63 tcpRcvQueueBytes:vector ETV
attr interpolationmode sample-hold
vector 597 scenario.client4.tcp.conn-63 rcvWnd:vector ETV
attr interpolationmode sample-hold
vector 598 scenario.client4.tcp.conn-63 sndAck:vector ETV
attr interpolationmode sample-hold
vector 599 scenario.client0.tcp.conn-62 rcvSeq:vector ETV
attr interpolationmode sample-hold
vector 600 scenario.client0.tcp.conn-62 rcvAck:vector ETV
attr interpolationmode sample-hold
vector 601 scenario.client0.tcp.conn-62 sndWnd:vector ETV
attr interpolationmode sample-hold
vector 602 scenario.client0.tcp.conn-62 unacked:vector ETV
attr interpolationmode sample-hold
vector 603 scenario.client4.tcp.conn-63 rcvSeq:vector ETV
attr interpolationmode sample-hold
vector 604 scenario.client4.tcp.conn-63 rcvAck:vector ETV
attr interpolationmode sample-hold
vector 605 scenario.client4.tcp.conn-63 unacked:vector ETV
attr interpolationmode sample-hold
vector 606 scenario.client4.tcp.conn-63 cwnd:vector ETV
attr interpolationmode sample-hold
vector 607 scenario.client4.tcp.conn-63 ssthresh:vector ETV
attr interpolationmode sample-hold
vector 608 scenario.client4.tcp.conn-63 dupAcks:vector ETV
attr interpolationmode sample-hold
vector 609 scenario.client0.tcp.conn-62 rtt:vector ETV
attr interpolationmode sample-hold
vector 610 scenario.client0.tcp.conn-62 srtt:vector ETV
attr interpolationmode sample-hold
vector 611 scenario.client0.tcp.conn-62 rttvar:vector ETV
attr interpolationmode sample-hold
vector 612 scenario.client0.tcp.conn-62 rto:vector ETV
attr interpolationmode sample-hold
vector 613 scenario.client0.tcp.conn-62 cwnd:vector ETV
attr interpolationmode sample-hold
vector 614 scenario.client0.tcp.conn-62 ssthresh:vector ETV
attr interpolationmode sample-hold
vector 615 scenario.client0.tcp.conn-62 dupAcks:vector ETV
attr interpolationmode sample-hold
vector 616 scenario.client1.tcp.conn-64 tcpRcvQueueBytes:vector ETV
attr interpolationmode sample-hold
vector 617 scenario.client1.tcp.conn-64 rcvAdv:vector ETV
attr interpolationmode sample-hold
vector 618 scenario.client1.tcp.conn-64 rcvWnd:vector ETV
attr interpolationmode sample-hold
vector 619 scenario.client1.tcp.conn-64 sndAck:vector ETV
attr interpolationmode sample-hold
vector 620 scenario.client4.tcp.conn-65 rcvAdv:vector ETV
attr interpolationmode sample-hold
vector 621 scenario.client4.tcp.conn-65 sndWnd:vector ETV
attr interpolationmode sample-hold
vector 622 scenario.client4.tcp.conn-65 tcpRcvQueueBytes:vector ETV
attr interpolationmode sample-hold
vector 623 scenario.client4.tcp.conn-65 rcvWnd:vector ETV
attr interpolationmode sample-hold
vector 624 scenario.client4.tcp.conn-65 sndAck:vector ETV
attr interpolationmode sample-hold
vector 625 scenario.client1.tcp.conn-64 rcvSeq:vector ETV
attr interpolationmode sample-hold
vector 626 scenario.client1.tcp.conn-64 rcvAck:vector ETV
attr interpolationmode sample-hold
vector 627 scenario.client1.tcp.conn-64 sndWnd:vector ETV
attr interpolationmode sample-hold
vector 628 scenario.client1.tcp.conn-64 unacked:vector ETV
attr interpolationmode sample-hold
vector 629 scenario.client4.tcp.conn-65 rcvSeq:vector ETV
attr interpolationmode sample-hold
vector 630 scenario.client4.tcp.conn-65 rcvAck:vector ETV
attr interpolationmode sample-hold
vector 631 scenario.client4.tcp.conn-65 unacked:vector ETV
attr interpolationmode sample-hold
vector 632 scenario.client4.tcp.conn-65 cwnd:vector ETV
attr interpolationmode sample-hold
vector 633 scenario.client4.tcp.conn-65 ssthresh:vector ETV
attr interpolationmode sample-hold
vector 634 scenario.client4.tcp.conn-65 dupAcks:vector ETV
attr interpolationmode sample-hold
vector 635 scenario.client1.tcp.conn-64 rtt:vector ETV
attr interpolationmode sample-hold
vector 636 scenario.client1.tcp.conn-64 srtt:vector ETV
attr interpolationmode sample-hold
vector 637 scenario.client1.tcp.conn-64 rttvar:vector ETV
attr interpolationmode sample-hold
vector 638 scenario.client1.tcp.conn-64 rto:vector ETV
attr interpolationmode sample-hold
vector 639 scenario.client1.tcp.conn-64 cwnd:vector ETV
attr interpolationmode sample-hold
vector 640 scenario.client1.tcp.conn-64 ssthresh:vector ETV
attr interpolationmode sample-hold
vector 641 scenario.client1.tcp.conn-64 dupAcks:vector ETV
attr interpolationmode sample-hold
vector 642 scenario.client3.tcp.conn-66 tcpRcvQueueBytes:vector ETV
attr interpolationmode sample-hold
vector 643 scenario.client3.tcp.conn-66 rcvAdv:vector ETV
attr interpolationmode sample-hold
vector 644 scenario.client3.tcp.conn-66 rcvWnd:vector ETV
attr interpolationmode sample-hold
vector 645 scenario.client3.tcp.conn-66 sndAck:vector ETV
attr interpolationmode sample-hold
vector 646 scenario.client3.ppp[3].ppp rcvdPkFromHl:vector(packetBytes) ETV
attr interpolationmode none
attr source packetReceivedFromUpper
attr title "packets received from higher layer, vector(packetBytes)"
vector 647 scenario.client3.ppp[3].ppp.queue packetPushed:vector(packetBytes) ETV
attr interpolationmode none
attr title "packet pushed, vector(packetBytes)"
vector 648 scenario.client3.ppp[3].ppp.queue queueLength:vector ETV
attr interpolationmode sample-hold
attr source "count(packetPushed) - count(packetPopped) - count(packetRemoved) - count(packetDropped)"
attr title "queue length, vector"
vector 649 scenario.client3.ppp[3].ppp.queue packetPopped:vector(packetBytes) ETV
attr interpolationmode none
attr title "packet popped, vector(packetBytes)"
vector 650 scenario.client3.ppp[3].ppp.queue queueingTime:vector ETV
attr interpolationmode none
attr source queueingTime(packetPopped)
attr title "queueing times, vector"
attr unit s
vector 651 scenario.client3.ppp[3].ppp txPk:vector(packetBytes) ETV
attr interpolationmode none
attr source packetSentToLower
attr title "packets transmitted, vector(packetBytes)"
vector 652 scenario.client4.ppp[3].ppp rxPkOk:vector(packetBytes) ETV
attr interpolationmode none
attr source rxPkOk
attr title "packets received OK, vector(packetBytes)"
vector 653 scenario.client4.ppp[3].ppp passedUpPk:vector(packetBytes) ETV
attr interpolationmode none
attr source packetSentToUpper
attr title "packets passed to higher layer, vector(packetBytes)"
vector 654 scenario.client4.tcp.conn-67 rcvAdv:vector ETV
attr interpolationmode sample-hold
vector 655 scenario.client4.tcp.conn-67 sndWnd:vector ETV
attr interpolationmode sample-hold
vector 656 scenario.client4.tcp.conn-67 tcpRcvQueueBytes:vector ETV
attr interpolationmode sample-hold
vector 657 scenario.client4.tcp.conn-67 rcvWnd:vector ETV
attr interpolationmode sample-hold
vector 658 scenario.client4.tcp.conn-67 sndAck:vector ETV
attr interpolationmode sample-hold
vector 659 scenario.client4.ppp[3].ppp rcvdPkFromHl:vector(packetBytes) ETV
attr interpolationmode none
attr source packetReceivedFromUpper
attr title "packets received from higher layer, vector(packetBytes)"
vector 660 scenario.client4.ppp[3].ppp.queue packetPushed:vector(packetBytes) ETV
attr interpolationmode none
attr title "packet pushed, vector(packetBytes)"
vector 661 scenario.client4.ppp[3].ppp.queue queueLength:vector ETV
attr interpolationmode sample-hold
attr source "count(packetPushed) - count(packetPopped) - count(packetRemoved) - count(packetDropped)"
attr title "queue length, vector"
vector 662 scenario.client4.ppp[3].ppp.queue packetPopped:vector(packetBytes) ETV
attr interpolationmode none
attr title "packet popped, vector(packetBytes)"
vector 663 scenario.client4.ppp[3].ppp.queue queueingTime:vector ETV
attr interpolationmode none
attr source queueingTime(packetPopped)
[...]
531	771	5.798844948759	44
531	784	5.800636948759	41
531	809	5.850428045655	44
531	826	5.852188045655	40
531	1330	8.161034027406	40
531	1525	8.249666742149	40
531	1587	8.528247696646	41
531	1719	9.234558006409	40
531	1734	9.500709927549	40
532	773	5.798844948759	1456989
532	773	5.798844948759	1456989
532	786	5.800636948759	1456989
532	1589	8.528247696646	1456991
533	773	5.798844948759	7504
533	786	5.800636948759	7504
534	773	5.798844948759	0
534	786	5.800636948759	0
534	786	5.800636948759	1
534	1589	8.528247696646	0
534	1589	8.528247696646	0
535	773	5.798844948759	7504
535	786	5.800636948759	7503
535	1589	8.528247696646	7504
536	773	5.798844948759	1449485
536	786	5.800636948759	1449486
536	1589	8.528247696646	1449487
537	775	5.798844948759	44
537	790	5.800636948759	40
537	801	5.848612045655	44
537	814	5.850428045655	41
537	1321	8.159274027406	41
537	1486	8.247898742149	42
537	1592	8.528247696646	40
537	1710	9.232798006409	41
537	1725	9.498949927549	41
538	775	5.798844948759	44
538	790	5.800636948759	40
538	801	5.848612045655	44
538	814	5.850428045655	41
538	1321	8.159274027406	41
538	1486	8.247898742149	42
538	1592	8.528247696646	40
538	1710	9.232798006409	41
538	1725	9.498949927549	41
539	775	5.798844948759	1
539	775	5.798844948759	0
539	790	5.800636948759	1
539	790	5.800636948759	0
539	801	5.848612045655	1
539	801	5.848612045655	0
539	814	5.850428045655	1
539	814	5.850428045655	0
539	1321	8.159274027406	1
539	1321	8.159274027406	0
539	1486	8.247898742149	1
539	1486	8.247898742149	0
539	1592	8.528247696646	1
539	1592	8.528247696646	0
539	1710	9.232798006409	1
539	1710	9.232798006409	0
539	1725	9.498949927549	1
539	1725	9.498949927549	0
540	775	5.798844948759	44
540	790	5.800636948759	40
540	801	5.848612045655	44
540	814	5.850428045655	41
540	1321	8.159274027406	41
540	1486	8.247898742149	42
540	1592	8.528247696646	40
540	1710	9.232798006409	41
540	1725	9.498949927549	41
541	775	5.798844948759	0
541	790	5.800636948759	0
541	801	5.848612045655	0
541	814	5.850428045655	0
541	1321	8.159274027406	0
541	1486	8.247898742149	0
541	1592	8.528247696646	0
541	1710	9.232798006409	0
541	1725	9.498949927549	0
542	775	5.798844948759	51
542	790	5.800636948759	47
542	801	5.848612045655	51
542	814	5.850428045655	48
542	1321	8.159274027406	48
542	1486	8.247898742149	49
542	1592	8.528247696646	47
542	1710	9.232798006409	48
542	1725	9.498949927549	48
543	777	5.799752948759	51
543	794	5.801512948759	47
543	803	5.849520045655	51
543	816	5.851312045655	48
543	1323	8.160158027406	48
543	1497	8.248790742149	49
543	1594	8.529123696646	47
543	1712	9.233682006409	48
543	1727	9.499833927549	48
544	777	5.799752948759	44
544	794	5.801512948759	40
544	803	5.849520045655	44
544	816	5.851312045655	41
544	1323	8.160158027406	41
544	1497	8.248790742149	42
544	1594	8.529123696646	40
544	1712	9.233682006409	41
544	1727	9.499833927549	41
545	779	5.799752948759	1449711
545	796	5.801512948759	1449712
545	1596	8.529123696646	1449712
546	779	5.799752948759	1449485
546	796	5.801512948759	1449486
546	1596	8.529123696646	1449487
547	779	5.799752948759	7504
547	796	5.801512948759	7503
547	1596	8.529123696646	7504
548	779	5.799752948759	1
548	796	5.801512948759	0
548	1583	8.527363696646	1
548	1596	8.529123696646	0
549	786	5.800636948759	1449485
549	1589	8.528247696646	1449486
550	786	5.800636948759	1449712
550	1589	8.528247696646	1449712
551	786	5.800636948759	0
552	786	5.800636948759	1072
553	786	5.800636948759	4294967295
554	786	5.800636948759	0
554	1589	8.528247696646	0
555	796	5.801512948759	0.00176
555	1596	8.529123696646	0.00176
556	796	5.801512948759	0.00022
556	1596	8.529123696646	0.0004125
557	796	5.801512948759	0.65647
557	1596	8.529123696646	0.57460375
558	796	5.801512948759	2.6261
558	1596	8.529123696646	2.2988275
559	796	5.801512948759	1072
559	1596	8.529123696646	1072
560	796	5.801512948759	4294967295
560	1596	8.529123696646	4294967295
561	796	5.801512948759	0
561	1596	8.529123696646	0
562	798	5.848612045655	0
562	811	5.850428045655	0
562	1319	8.159274027406	0
562	1477	8.247898742149	0
562	1708	9.232798006409	0
562	1723	9.498949927549	0
563	798	5.848612045655	7504
563	811	5.850428045655	1469885
563	811	5.850428045655	1469885
563	1319	8.159274027406	1469885
563	1477	8.247898742149	1469885
563	1708	9.232798006409	1469885
563	1723	9.498949927549	1469885
564	798	5.848612045655	7504
564	811	5.850428045655	7504
564	1319	8.159274027406	7504
564	1477	8.247898742149	7504
564	1708	9.232798006409	7504
564	1723	9.498949927549	7504
565	798	5.848612045655	0
565	811	5.850428045655	1462381
565	1319	8.159274027406	1462381
565	1477	8.247898742149	1462381
565	1708	9.232798006409	1462381
565	1723	9.498949927549	1462381
566	805	5.849520045655	1462153
566	843	6.126597593188	1531422
566	890	6.282364065554	1570364
566	1294	8.121856705954	2030237
567	805	5.849520045655	0
567	843	6.126597593188	0
567	890	6.282364065554	0
567	1294	8.121856705954	0
568	805	5.849520045655	1469658
568	805	5.849520045655	1469658
568	818	5.851312045655	1469658
568	1325	8.160158027406	1469660
568	1503	8.248790742149	1469662
568	1714	9.233682006409	1469663
568	1729	9.499833927549	1469664
569	805	5.849520045655	7504
569	818	5.851312045655	7504
570	805	5.849520045655	0
570	818	5.851312045655	0
570	818	5.851312045655	1
570	1325	8.160158027406	0
570	1325	8.160158027406	0
570	1503	8.248790742149	0
570	1503	8.248790742149	0
570	1714	9.233682006409	0
570	1714	9.233682006409	0
570	1729	9.499833927549	0
570	1729	9.499833927549	0
571	805	5.849520045655	7504
571	818	5.851312045655	7503
571	1325	8.160158027406	7504
571	1503	8.248790742149	7504
571	1714	9.233682006409	7504
571	1729	9.499833927549	7504
572	805	5.849520045655	1462154
572	818	5.851312045655	1462155
572	1325	8.160158027406	1462156
572	1503	8.248790742149	1462158
572	1714	9.233682006409	1462159
572	1729	9.499833927549	1462160
573	811	5.850428045655	1462380
573	828	5.852188045655	1462381
573	1332	8.161034027406	1462381
573	1531	8.249666742149	1462381
573	1721	9.234558006409	1462381
573	1736	9.500709927549	1462381
574	811	5.850428045655	1462154
574	828	5.852188045655	1462155
574	1332	8.161034027406	1462156
574	1531	8.249666742149	1462158
574	1721	9.234558006409	1462159
574	1736	9.500709927549	1462160
575	811	5.850428045655	7504
575	828	5.852188045655	7503
575	1332	8.161034027406	7504
575	1531	8.249666742149	7504
575	1721	9.234558006409	7504
575	1736	9.500709927549	7504
576	811	5.850428045655	1
576	828	5.852188045655	0
576	1319	8.159274027406	1
576	1332	8.161034027406	0
576	1477	8.247898742149	2
576	1531	8.249666742149	0
576	1708	9.232798006409	1
576	1721	9.234558006409	0
576	1723	9.498949927549	1
576	1736	9.500709927549	0
577	818	5.851312045655	1462154
577	1325	8.160158027406	1462155
577	1503	8.248790742149	1462156
577	1714	9.233682006409	1462158
577	1729	9.499833927549	1462159
578	818	5.851312045655	1462381
578	1325	8.160158027406	1462381
578	1503	8.248790742149	1462381
578	1714	9.233682006409	1462381
578	1729	9.499833927549	1462381
579	818	5.851312045655	0
580	818	5.851312045655	1072
581	818	5.851312045655	4294967295
582	818	5.851312045655	0
582	1325	8.160158027406	0
582	1503	8.248790742149	0
582	1714	9.233682006409	0
582	1729	9.499833927549	0
583	828	5.852188045655	0.00176
583	1332	8.161034027406	0.00176
583	1531	8.249666742149	0.001768
583	1721	9.234558006409	0.00176
583	1736	9.500709927549	0.00176
584	828	5.852188045655	0.00022
584	1332	8.161034027406	0.0004125
584	1531	8.249666742149	0.0005819375
584	1721	9.234558006409	0.000729195313
584	1736	9.500709927549	0.000858045899
585	828	5.852188045655	0.65647
585	1332	8.161034027406	0.57460375
585	1531	8.249666742149	0.50294771875
585	1721	9.234558006409	0.440226511719
585	1736	9.500709927549	0.38532704834
586	828	5.852188045655	2.6261
586	1332	8.161034027406	2.2988275
586	1531	8.249666742149	2.0123728125
586	1721	9.234558006409	1.761635242189
586	1736	9.500709927549	1.542166239259
587	828	5.852188045655	1072
587	1332	8.161034027406	1608
587	1531	8.249666742149	2144
587	1721	9.234558006409	2680
587	1736	9.500709927549	3216
588	828	5.852188045655	4294967295
588	1332	8.161034027406	4294967295
588	1531	8.249666742149	4294967295
588	1721	9.234558006409	4294967295
588	1736	9.500709927549	4294967295
589	828	5.852188045655	0
589	1332	8.161034027406	0
589	1531	8.249666742149	0
589	1721	9.234558006409	0
589	1736	9.500709927549	0
590	836	6.125689593188	0
590	849	6.127505593188	0
590	1170	7.830131902707	0
590	1357	8.165193581469	0
591	836	6.125689593188	7504
591	849	6.127505593188	1539154
591	849	6.127505593188	1539154
591	1170	7.830131902707	1539154
591	1357	8.165193581469	1539154
592	836	6.125689593188	7504
592	849	6.127505593188	7504
592	1170	7.830131902707	7504
592	1357	8.165193581469	7504
593	836	6.125689593188	0
593	849	6.127505593188	1531650
593	1170	7.830131902707	1531650
593	1357	8.165193581469	1531650
594	843	6.126597593188	1538927
594	843	6.126597593188	1538927
594	856	6.128389593188	1538927
594	1176	7.831015902707	1538929
594	1387	8.166085581469	1538931
595	843	6.126597593188	7504
595	856	6.128389593188	7504
596	843	6.126597593188	0
596	856	6.128389593188	0
596	856	6.128389593188	1
596	1176	7.831015902707	0
596	1176	7.831015902707	0
596	1387	8.166085581469	0
596	1387	8.166085581469	0
597	843	6.126597593188	7504
597	856	6.128389593188	7503
597	1176	7.831015902707	7504
597	1387	8.166085581469	7504
598	843	6.126597593188	1531423
598	856	6.128389593188	1531424
598	1176	7.831015902707	1531425
598	1387	8.166085581469	1531427
599	849	6.127505593188	1531649
599	866	6.129265593188	1531650
599	1183	7.831891902707	1531650
599	1415	8.166961581469	1531650
600	849	6.127505593188	1531423
600	866	6.129265593188	1531424
600	1183	7.831891902707	1531425
600	1415	8.166961581469	1531427
601	849	6.127505593188	7504
601	866	6.129265593188	7503
601	1183	7.831891902707	7504
601	1415	8.166961581469	7504
602	849	6.127505593188	1
602	866	6.129265593188	0
602	1170	7.830131902707	1
602	1183	7.831891902707	0
602	1357	8.165193581469	2
602	1415	8.166961581469	0
603	856	6.128389593188	1531423
603	1176	7.831015902707	1531424
603	1387	8.166085581469	1531425
604	856	6.128389593188	1531650
604	1176	7.831015902707	1531650
604	1387	8.166085581469	1531650
605	856	6.128389593188	0
606	856	6.128389593188	1072
607	856	6.128389593188	4294967295
608	856	6.128389593188	0
608	1176	7.831015902707	0
608	1387	8.166085581469	0
609	866	6.129265593188	0.00176
609	1183	7.831891902707	0.00176
609	1415	8.166961581469	0.001768
610	866	6.129265593188	0.00022
610	1183	7.831891902707	0.0004125
610	1415	8.166961581469	0.0005819375
611	866	6.129265593188	0.65647
611	1183	7.831891902707	0.57460375
611	1415	8.166961581469	0.50294771875
612	866	6.129265593188	2.6261
612	1183	7.831891902707	2.2988275
612	1415	8.166961581469	2.0123728125
613	866	6.129265593188	1072
613	1183	7.831891902707	1608
613	1415	8.166961581469	2144
614	866	6.129265593188	4294967295
614	1183	7.831891902707	4294967295
614	1415	8.166961581469	4294967295
615	866	6.129265593188	0
615	1183	7.831891902707	0
615	1415	8.166961581469	0
616	883	6.281456065554	0
616	896	6.283272065554	0
616	1197	7.862541522996	0
616	1568	8.513838070498	0
616	1673	8.801113689871	0
617	883	6.281456065554	7504
617	896	6.283272065554	1578096
617	896	6.283272065554	1578096
617	1197	7.862541522996	1578096
617	1568	8.513838070498	1578096
617	1673	8.801113689871	1578096
618	883	6.281456065554	7504
618	896	6.283272065554	7504
618	1197	7.862541522996	7504
618	1568	8.513838070498	7504
618	1673	8.801113689871	7504
619	883	6.281456065554	0
619	896	6.283272065554	1570592
619	1197	7.862541522996	1570592
619	1568	8.513838070498	1570592
619	1673	8.801113689871	1570592
620	890	6.282364065554	1577869
620	890	6.282364065554	1577869
620	903	6.284156065554	1577869
620	1223	7.863433522996	1577872
620	1574	8.514722070498	1577873
620	1679	8.801997689871	1577874
621	890	6.282364065554	7504
621	903	6.284156065554	7504
622	890	6.282364065554	0
622	903	6.284156065554	0
622	903	6.284156065554	1
622	1223	7.863433522996	0
622	1223	7.863433522996	0
622	1574	8.514722070498	0
622	1574	8.514722070498	0
622	1679	8.801997689871	0
622	1679	8.801997689871	0
623	890	6.282364065554	7504
623	903	6.284156065554	7503
623	1223	7.863433522996	7504
623	1574	8.514722070498	7504
623	1679	8.801997689871	7504
624	890	6.282364065554	1570365
624	903	6.284156065554	1570366
624	1223	7.863433522996	1570368
624	1574	8.514722070498	1570369
624	1679	8.801997689871	1570370
625	896	6.283272065554	1570591
625	913	6.285032065554	1570592
625	1251	7.864309522996	1570592
625	1581	8.515598070498	1570592
625	1686	8.802873689871	1570592
626	896	6.283272065554	1570365
626	913	6.285032065554	1570366
626	1251	7.864309522996	1570368
626	1581	8.515598070498	1570369
626	1686	8.802873689871	1570370
627	896	6.283272065554	7504
627	913	6.285032065554	7503
627	1251	7.864309522996	7504
627	1581	8.515598070498	7504
627	1686	8.802873689871	7504
628	896	6.283272065554	1
628	913	6.285032065554	0
628	1197	7.862541522996	2
628	1251	7.864309522996	0
628	1568	8.513838070498	1
628	1581	8.515598070498	0
628	1673	8.801113689871	1
628	1686	8.802873689871	0
629	903	6.284156065554	1570365
629	1223	7.863433522996	1570366
629	1574	8.514722070498	1570368
629	1679	8.801997689871	1570369
630	903	6.284156065554	1570592
630	1223	7.863433522996	1570592
630	1574	8.514722070498	1570592
630	1679	8.801997689871	1570592
631	903	6.284156065554	0
632	903	6.284156065554	1072
633	903	6.284156065554	4294967295
634	903	6.284156065554	0
634	1223	7.863433522996	0
634	1574	8.514722070498	0
634	1679	8.801997689871	0
635	913	6.285032065554	0.00176
635	1251	7.864309522996	0.001768
635	1581	8.515598070498	0.00176
635	1686	8.802873689871	0.00176
636	913	6.285032065554	0.00022
636	1251	7.864309522996	0.0004135
636	1581	8.515598070498	0.0005818125
636	1686	8.802873689871	0.000729085938
637	913	6.285032065554	0.65647
637	1251	7.864309522996	0.57460475
637	1581	8.515598070498	0.50294746875
637	1686	8.802873689871	0.440226308594
638	913	6.285032065554	2.6261
638	1251	7.864309522996	2.2988325
638	1581	8.515598070498	2.0123716875
638	1686	8.802873689871	1.761634320314
639	913	6.285032065554	1072
639	1251	7.864309522996	1608
639	1581	8.515598070498	2144
639	1686	8.802873689871	2680
640	913	6.285032065554	4294967295
640	1251	7.864309522996	4294967295
640	1581	8.515598070498	4294967295
640	1686	8.802873689871	4294967295
641	913	6.285032065554	0
641	1251	7.864309522996	0
641	1581	8.515598070498	0
641	1686	8.802873689871	0
642	1287	8.120948705954	0
642	1300	8.122764705954	0
642	1693	9.229334304269	0
643	1287	8.120948705954	7504
643	1300	8.122764705954	2037969
643	1300	8.122764705954	2037969
643	1693	9.229334304269	2037969
644	1287	8.120948705954	7504
644	1300	8.122764705954	7504
644	1693	9.229334304269	7504
645	1287	8.120948705954	0
645	1300	8.122764705954	2030465
645	1693	9.229334304269	2030465
646	1290	8.120948705954	44
646	1303	8.122764705954	41
646	1545	8.371833817072	44
646	1560	8.373625817072	40
646	1695	9.229334304269	41
647	1290	8.120948705954	44
647	1303	8.122764705954	41
647	1545	8.371833817072	44
647	1560	8.373625817072	40
647	1695	9.229334304269	41
648	1290	8.120948705954	1
648	1290	8.120948705954	0
648	1303	8.122764705954	1
648	1303	8.122764705954	0
648	1545	8.371833817072	1
648	1545	8.371833817072	0
648	1560	8.373625817072	1
648	1560	8.373625817072	0
648	1695	9.229334304269	1
648	1695	9.229334304269	0
649	1290	8.120948705954	44
649	1303	8.122764705954	41
649	1545	8.371833817072	44
649	1560	8.373625817072	40
649	1695	9.229334304269	41
650	1290	8.120948705954	0
650	1303	8.122764705954	0
650	1545	8.371833817072	0
650	1560	8.373625817072	0
650	1695	9.229334304269	0
651	1290	8.120948705954	51
651	1303	8.122764705954	48
651	1545	8.371833817072	51
651	1560	8.373625817072	47
651	1695	9.229334304269	48
652	1292	8.121856705954	51
652	1305	8.123648705954	48
652	1547	8.372741817072	51
652	1564	8.374501817072	47
652	1697	9.230218304269	48
653	1292	8.121856705954	44
653	1305	8.123648705954	41
653	1547	8.372741817072	44
653	1564	8.374501817072	40
653	1697	9.230218304269	41
654	1294	8.121856705954	2037742
654	1294	8.121856705954	2037742
654	1307	8.123648705954	2037742
654	1699	9.230218304269	2037744
655	1294	8.121856705954	7504
655	1307	8.123648705954	7504
656	1294	8.121856705954	0
656	1307	8.123648705954	0
656	1307	8.123648705954	1
656	1699	9.230218304269	0
656	1699	9.230218304269	0
657	1294	8.121856705954	7504
657	1307	8.123648705954	7503
657	1699	9.230218304269	7504
658	1294	8.121856705954	2030238
658	1307	8.123648705954	2030239
658	1699	9.230218304269	2030240
659	1296	8.121856705954	44
659	1311	8.123648705954	40
659	1539	8.370925817072	44
659	1552	8.372741817072	41
659	1702	9.230218304269	40
660	1296	8.121856705954	44
660	1311	8.123648705954	40
660	1539	8.370925817072	44
660	1552	8.372741817072	41
660	1702	9.230218304269	40
661	1296	8.121856705954	1
661	1296	8.121856705954	0
661	1311	8.123648705954	1
661	1311	8.123648705954	0
661	1539	8.370925817072	1
661	1539	8.370925817072	0
661	1552	8.372741817072	1
661	1552	8.372741817072	0
661	1702	9.230218304269	1
661	1702	9.230218304269	0
662	1296	8.121856705954	44
662	1311	8.123648705954	40
662	1539	8.370925817072	44
662	1552	8.372741817072	41
662	1702	9.230218304269	40
663	1296	8.121856705954	0
663	1311	8.123648705954	0
663	1539	8.370925817072	0
663	1552	8.372741817072	0
663	1702	9.230218304269	0
664	1296	8.121856705954	51
664	1311	8.123648705954	47
664	1539	8.370925817072	51
664	1552	8.372741817072	48
664	1702	9.230218304269	47
665	1298	8.122764705954	51
665	1315	8.124524705954	47
665	1541	8.371833817072	51
665	1554	8.373625817072	48
665	1704	9.231094304269	47
666	1298	8.122764705954	44
666	1315	8.124524705954	40
666	1541	8.371833817072	44
666	1554	8.373625817072	41
666	1704	9.231094304269	40
667	1300	8.122764705954	2030464
667	1317	8.124524705954	2030465
667	1706	9.231094304269	2030465
668	1300	8.122764705954	2030238
668	1317	8.124524705954	2030239
668	1706	9.231094304269	2030240
669	1300	8.122764705954	7504
669	1317	8.124524705954	7503
669	1706	9.231094304269	7504
670	1300	8.122764705954	1
670	1317	8.124524705954	0
670	1693	9.229334304269	1
670	1706	9.231094304269	0
671	1307	8.123648705954	2030238
671	1699	9.230218304269	2030239
672	1307	8.123648705954	2030465
672	1699	9.230218304269	2030465
673	1307	8.123648705954	0
674	1307	8.123648705954	1072
675	1307	8.123648705954	4294967295
676	1307	8.123648705954	0
676	1699	9.230218304269	0
677	1317	8.124524705954	0.00176
677	1706	9.231094304269	0.00176
678	1317	8.124524705954	0.00022
678	1706	9.231094304269	0.0004125
679	1317	8.124524705954	0.65647
679	1706	9.231094304269	0.57460375
680	1317	8.124524705954	2.6261
680	1706	9.231094304269	2.2988275
681	1317	8.124524705954	1072
681	1706	9.231094304269	1608
682	1317	8.124524705954	4294967295
682	1706	9.231094304269	4294967295
683	1317	8.124524705954	0
683	1706	9.231094304269	0
684	1536	8.370925817072	0
684	1549	8.372741817072	0
685	1536	8.370925817072	7504
685	1549	8.372741817072	2100463
685	1549	8.372741817072	2100463
686	1536	8.370925817072	7504
686	1549	8.372741817072	7504
687	1536	8.370925817072	0
687	1549	8.372741817072	2092959
688	1543	8.371833817072	2100236
688	1543	8.371833817072	2100236
688	1556	8.373625817072	2100236
689	1543	8.371833817072	7504
689	1556	8.373625817072	7504
690	1543	8.371833817072	0
690	1556	8.373625817072	0
690	1556	8.373625817072	1
691	1543	8.371833817072	7504
691	1556	8.373625817072	7503
692	1543	8.371833817072	2092732
692	1556	8.373625817072	2092733
693	1549	8.372741817072	2092958
693	1566	8.374501817072	2092959
694	1549	8.372741817072	2092732
694	1566	8.374501817072	2092733
695	1549	8.372741817072	7504
695	1566	8.374501817072	7503
696	1549	8.372741817072	1
696	1566	8.374501817072	0
697	1556	8.373625817072	2092732
698	1556	8.373625817072	2092959
699	1556	8.373625817072	0
700	1556	8.373625817072	1072
701	1556	8.373625817072	4294967295
702	1556	8.373625817072	0
703	1566	8.374501817072	0.00176
704	1566	8.374501817072	0.00022
705	1566	8.374501817072	0.65647
706	1566	8.374501817072	2.6261
707	1566	8.374501817072	1072
708	1566	8.374501817072	4294967295
709	1566	8.374501817072	0

