file 225573 1641925242                                          
version 2
run BROADCAST3-0-20220111-19:20:39-6136
attr configname BROADCAST3
attr datetime 20220111-19:20:39
attr experiment BROADCAST3
attr inifile omnetpp.ini
attr iterationvars ""
attr iterationvarsf ""
attr measurement ""
attr network scenario
attr processid 6136
attr repetition 0
attr replication #0
attr resultdir results
attr runnumber 0
attr seedset 0
param **.client0.app[0].broadcast 1.0
param **.client1.app[0].broadcast 1.4
param **.client2.app[0].broadcast 1.8
param **.client3.app[0].join 1.3
param **.ppp[*].ppp.queue.typename "\"DropTailQueue\""
param **.tcp.typename "\"Tcp\""
param **.tcp.nagleEnabled false
param **.cli*.app[*].nPar 5
param **.cli*.app[*].fPar 0
param **.numApps 1
param **.client0.app[*].typename "\"Node\""
param **.client0.app[0].localPort 1000
param **.client0.app[0].localPortL 1234
param **.client0.app[0].connectAddress "\"\""
param **.client0.app[0].connectPort 1234
param **.client1.app[*].typename "\"Node\""
param **.client1.app[0].localPort 1001
param **.client1.app[0].localPortL 1234
param **.client1.app[0].connectAddress "\"\""
param **.client1.app[0].connectPort 1234
param **.client2.app[*].typename "\"Node\""
param **.client2.app[0].localPort 1002
param **.client2.app[0].localPortL 1234
param **.client2.app[0].connectAddress "\"\""
param **.client2.app[0].connectPort 1234
param **.client3.app[*].typename "\"Node\""
param **.client3.app[0].localPort 1003
param **.client3.app[0].localPortL 1234
param **.client3.app[0].connectAddress "\"\""
param **.client3.app[0].connectPort 1234
param **.client4.app[*].typename "\"Node\""
param **.client4.app[0].localPort 1004
param **.client4.app[0].localPortL 1234
param **.client4.app[0].connectAddress "\"\""
param **.client4.app[0].connectPort 1234
param *.configurator.dumpAddresses true
param *.configurator.dumpTopology true
param *.configurator.dumpLinks true
param *.configurator.dumpRoutes true

vector 0 scenario.client0.ppp[0].ppp transmissionState:vector ETV
attr interpolationmode sample-hold
attr source transmissionStateChanged
attr title "tx state, vector"
vector 1 scenario.client0.ppp[1].ppp transmissionState:vector ETV
attr interpolationmode sample-hold
attr source transmissionStateChanged
attr title "tx state, vector"
vector 2 scenario.client0.ppp[2].ppp transmissionState:vector ETV
attr interpolationmode sample-hold
attr source transmissionStateChanged
attr title "tx state, vector"
vector 3 scenario.client0.ppp[3].ppp transmissionState:vector ETV
attr interpolationmode sample-hold
attr source transmissionStateChanged
attr title "tx state, vector"
vector 4 scenario.client1.ppp[0].ppp transmissionState:vector ETV
attr interpolationmode sample-hold
attr source transmissionStateChanged
attr title "tx state, vector"
vector 5 scenario.client1.ppp[1].ppp transmissionState:vector ETV
attr interpolationmode sample-hold
attr source transmissionStateChanged
attr title "tx state, vector"
vector 6 scenario.client1.ppp[2].ppp transmissionState:vector ETV
attr interpolationmode sample-hold
attr source transmissionStateChanged
attr title "tx state, vector"
vector 7 scenario.client1.ppp[3].ppp transmissionState:vector ETV
attr interpolationmode sample-hold
attr source transmissionStateChanged
attr title "tx state, vector"
vector 8 scenario.client2.ppp[0].ppp transmissionState:vector ETV
attr interpolationmode sample-hold
attr source transmissionStateChanged
attr title "tx state, vector"
vector 9 scenario.client2.ppp[1].ppp transmissionState:vector ETV
attr interpolationmode sample-hold
attr source transmissionStateChanged
attr title "tx state, vector"
vector 10 scenario.client2.ppp[2].ppp transmissionState:vector ETV
attr interpolationmode sample-hold
attr source transmissionStateChanged
attr title "tx state, vector"
vector 11 scenario.client2.ppp[3].ppp transmissionState:vector ETV
attr interpolationmode sample-hold
attr source transmissionStateChanged
attr title "tx state, vector"
vector 12 scenario.client3.ppp[0].ppp transmissionState:vector ETV
attr interpolationmode sample-hold
attr source transmissionStateChanged
attr title "tx state, vector"
vector 13 scenario.client3.ppp[1].ppp transmissionState:vector ETV
attr interpolationmode sample-hold
attr source transmissionStateChanged
attr title "tx state, vector"
vector 14 scenario.client3.ppp[2].ppp transmissionState:vector ETV
attr interpolationmode sample-hold
attr source transmissionStateChanged
attr title "tx state, vector"
vector 15 scenario.client3.ppp[3].ppp transmissionState:vector ETV
attr interpolationmode sample-hold
attr source transmissionStateChanged
attr title "tx state, vector"
vector 16 scenario.client4.ppp[0].ppp transmissionState:vector ETV
attr interpolationmode sample-hold
attr source transmissionStateChanged
attr title "tx state, vector"
vector 17 scenario.client4.ppp[1].ppp transmissionState:vector ETV
attr interpolationmode sample-hold
attr source transmissionStateChanged
attr title "tx state, vector"
vector 18 scenario.client4.ppp[2].ppp transmissionState:vector ETV
attr interpolationmode sample-hold
attr source transmissionStateChanged
attr title "tx state, vector"
vector 19 scenario.client4.ppp[3].ppp transmissionState:vector ETV
attr interpolationmode sample-hold
attr source transmissionStateChanged
attr title "tx state, vector"
vector 20 scenario.client0.tcp.conn-25 tcpRcvQueueBytes:vector ETV
attr interpolationmode sample-hold
vector 21 scenario.client0.tcp.conn-25 rcvAdv:vector ETV
attr interpolationmode sample-hold
vector 22 scenario.client0.tcp.conn-25 rcvWnd:vector ETV
attr interpolationmode sample-hold
vector 23 scenario.client0.tcp.conn-25 sndAck:vector ETV
attr interpolationmode sample-hold
vector 24 scenario.client0.ppp[1].ppp rcvdPkFromHl:vector(packetBytes) ETV
attr interpolationmode none
attr source packetReceivedFromUpper
attr title "packets received from higher layer, vector(packetBytes)"
vector 25 scenario.client0.ppp[1].ppp.queue packetPushed:vector(packetBytes) ETV
attr interpolationmode none
attr title "packet pushed, vector(packetBytes)"
vector 26 scenario.client0.ppp[1].ppp.queue queueLength:vector ETV
attr interpolationmode sample-hold
attr source "count(packetPushed) - count(packetPopped) - count(packetRemoved) - count(packetDropped)"
attr title "queue length, vector"
vector 27 scenario.client0.ppp[1].ppp.queue packetPopped:vector(packetBytes) ETV
attr interpolationmode none
attr title "packet popped, vector(packetBytes)"
vector 28 scenario.client0.ppp[1].ppp.queue queueingTime:vector ETV
attr interpolationmode none
attr source queueingTime(packetPopped)
attr title "queueing times, vector"
attr unit s
vector 29 scenario.client0.ppp[1].ppp txPk:vector(packetBytes) ETV
attr interpolationmode none
attr source packetSentToLower
attr title "packets transmitted, vector(packetBytes)"
vector 30 scenario.client2.ppp[0].ppp rxPkOk:vector(packetBytes) ETV
attr interpolationmode none
attr source rxPkOk
attr title "packets received OK, vector(packetBytes)"
vector 31 scenario.client2.ppp[0].ppp passedUpPk:vector(packetBytes) ETV
attr interpolationmode none
attr source packetSentToUpper
attr title "packets passed to higher layer, vector(packetBytes)"
vector 32 scenario.client2.tcp.conn-2 rcvSeq:vector ETV
attr interpolationmode sample-hold
vector 33 scenario.client2.tcp.conn-2 rcvAck:vector ETV
attr interpolationmode sample-hold
vector 34 scenario.client2.tcp.conn-26 rcvAdv:vector ETV
attr interpolationmode sample-hold
vector 35 scenario.client2.tcp.conn-26 sndWnd:vector ETV
attr interpolationmode sample-hold
vector 36 scenario.client2.tcp.conn-26 tcpRcvQueueBytes:vector ETV
attr interpolationmode sample-hold
vector 37 scenario.client2.tcp.conn-26 rcvWnd:vector ETV
attr interpolationmode sample-hold
vector 38 scenario.client2.tcp.conn-26 sndAck:vector ETV
attr interpolationmode sample-hold
vector 39 scenario.client2.ppp[0].ppp rcvdPkFromHl:vector(packetBytes) ETV
attr interpolationmode none
attr source packetReceivedFromUpper
attr title "packets received from higher layer, vector(packetBytes)"
vector 40 scenario.client2.ppp[0].ppp.queue packetPushed:vector(packetBytes) ETV
attr interpolationmode none
attr title "packet pushed, vector(packetBytes)"
vector 41 scenario.client2.ppp[0].ppp.queue queueLength:vector ETV
attr interpolationmode sample-hold
attr source "count(packetPushed) - count(packetPopped) - count(packetRemoved) - count(packetDropped)"
attr title "queue length, vector"
vector 42 scenario.client2.ppp[0].ppp.queue packetPopped:vector(packetBytes) ETV
attr interpolationmode none
attr title "packet popped, vector(packetBytes)"
vector 43 scenario.client2.ppp[0].ppp.queue queueingTime:vector ETV
attr interpolationmode none
attr source queueingTime(packetPopped)
attr title "queueing times, vector"
attr unit s
vector 44 scenario.client2.ppp[0].ppp txPk:vector(packetBytes) ETV
attr interpolationmode none
attr source packetSentToLower
attr title "packets transmitted, vector(packetBytes)"
vector 45 scenario.client0.ppp[1].ppp rxPkOk:vector(packetBytes) ETV
attr interpolationmode none
attr source rxPkOk
attr title "packets received OK, vector(packetBytes)"
vector 46 scenario.client0.ppp[1].ppp passedUpPk:vector(packetBytes) ETV
attr interpolationmode none
attr source packetSentToUpper
attr title "packets passed to higher layer, vector(packetBytes)"
vector 47 scenario.client0.tcp.conn-25 rcvSeq:vector ETV
attr interpolationmode sample-hold
vector 48 scenario.client0.tcp.conn-25 rcvAck:vector ETV
attr interpolationmode sample-hold
vector 49 scenario.client0.tcp.conn-25 sndWnd:vector ETV
attr interpolationmode sample-hold
vector 50 scenario.client0.tcp.conn-25 unacked:vector ETV
attr interpolationmode sample-hold
vector 51 scenario.client2.tcp.conn-26 rcvSeq:vector ETV
attr interpolationmode sample-hold
vector 52 scenario.client2.tcp.conn-26 rcvAck:vector ETV
attr interpolationmode sample-hold
vector 53 scenario.client2.tcp.conn-26 unacked:vector ETV
attr interpolationmode sample-hold
vector 54 scenario.client2.tcp.conn-26 cwnd:vector ETV
attr interpolationmode sample-hold
vector 55 scenario.client2.tcp.conn-26 ssthresh:vector ETV
attr interpolationmode sample-hold
vector 56 scenario.client2.tcp.conn-26 dupAcks:vector ETV
attr interpolationmode sample-hold
vector 57 scenario.client0.tcp.conn-25 rtt:vector ETV
attr interpolationmode sample-hold
vector 58 scenario.client0.tcp.conn-25 srtt:vector ETV
attr interpolationmode sample-hold
vector 59 scenario.client0.tcp.conn-25 rttvar:vector ETV
attr interpolationmode sample-hold
vector 60 scenario.client0.tcp.conn-25 rto:vector ETV
attr interpolationmode sample-hold
vector 61 scenario.client0.tcp.conn-25 cwnd:vector ETV
attr interpolationmode sample-hold
vector 62 scenario.client0.tcp.conn-25 ssthresh:vector ETV
attr interpolationmode sample-hold
vector 63 scenario.client0.tcp.conn-25 dupAcks:vector ETV
attr interpolationmode sample-hold
vector 64 scenario.client3.tcp.conn-27 tcpRcvQueueBytes:vector ETV
attr interpolationmode sample-hold
vector 65 scenario.client3.tcp.conn-27 rcvAdv:vector ETV
attr interpolationmode sample-hold
vector 66 scenario.client3.tcp.conn-27 rcvWnd:vector ETV
attr interpolationmode sample-hold
vector 67 scenario.client3.tcp.conn-27 sndAck:vector ETV
attr interpolationmode sample-hold
vector 68 scenario.client3.ppp[0].ppp rcvdPkFromHl:vector(packetBytes) ETV
attr interpolationmode none
attr source packetReceivedFromUpper
attr title "packets received from higher layer, vector(packetBytes)"
vector 69 scenario.client3.ppp[0].ppp.queue packetPushed:vector(packetBytes) ETV
attr interpolationmode none
attr title "packet pushed, vector(packetBytes)"
vector 70 scenario.client3.ppp[0].ppp.queue queueLength:vector ETV
attr interpolationmode sample-hold
attr source "count(packetPushed) - count(packetPopped) - count(packetRemoved) - count(packetDropped)"
attr title "queue length, vector"
vector 71 scenario.client3.ppp[0].ppp.queue packetPopped:vector(packetBytes) ETV
attr interpolationmode none
attr title "packet popped, vector(packetBytes)"
vector 72 scenario.client3.ppp[0].ppp.queue queueingTime:vector ETV
attr interpolationmode none
attr source queueingTime(packetPopped)
attr title "queueing times, vector"
attr unit s
vector 73 scenario.client3.ppp[0].ppp txPk:vector(packetBytes) ETV
attr interpolationmode none
attr source packetSentToLower
attr title "packets transmitted, vector(packetBytes)"
vector 74 scenario.client0.ppp[2].ppp rxPkOk:vector(packetBytes) ETV
attr interpolationmode none
attr source rxPkOk
attr title "packets received OK, vector(packetBytes)"
vector 75 scenario.client0.ppp[2].ppp passedUpPk:vector(packetBytes) ETV
attr interpolationmode none
attr source packetSentToUpper
attr title "packets passed to higher layer, vector(packetBytes)"
vector 76 scenario.client0.tcp.conn-0 rcvSeq:vector ETV
attr interpolationmode sample-hold
vector 77 scenario.client0.tcp.conn-0 rcvAck:vector ETV
attr interpolationmode sample-hold
vector 78 scenario.client0.tcp.conn-28 rcvAdv:vector ETV
attr interpolationmode sample-hold
vector 79 scenario.client0.tcp.conn-28 sndWnd:vector ETV
attr interpolationmode sample-hold
vector 80 scenario.client0.tcp.conn-28 tcpRcvQueueBytes:vector ETV
attr interpolationmode sample-hold
vector 81 scenario.client0.tcp.conn-28 rcvWnd:vector ETV
attr interpolationmode sample-hold
vector 82 scenario.client0.tcp.conn-28 sndAck:vector ETV
attr interpolationmode sample-hold
vector 83 scenario.client0.ppp[2].ppp rcvdPkFromHl:vector(packetBytes) ETV
attr interpolationmode none
attr source packetReceivedFromUpper
attr title "packets received from higher layer, vector(packetBytes)"
vector 84 scenario.client0.ppp[2].ppp.queue packetPushed:vector(packetBytes) ETV
attr interpolationmode none
attr title "packet pushed, vector(packetBytes)"
vector 85 scenario.client0.ppp[2].ppp.queue queueLength:vector ETV
attr interpolationmode sample-hold
attr source "count(packetPushed) - count(packetPopped) - count(packetRemoved) - count(packetDropped)"
attr title "queue length, vector"
vector 86 scenario.client0.ppp[2].ppp.queue packetPopped:vector(packetBytes) ETV
attr interpolationmode none
attr title "packet popped, vector(packetBytes)"
vector 87 scenario.client0.ppp[2].ppp.queue queueingTime:vector ETV
attr interpolationmode none
attr source queueingTime(packetPopped)
attr title "queueing times, vector"
attr unit s
vector 88 scenario.client0.ppp[2].ppp txPk:vector(packetBytes) ETV
attr interpolationmode none
attr source packetSentToLower
attr title "packets transmitted, vector(packetBytes)"
vector 89 scenario.client3.ppp[0].ppp rxPkOk:vector(packetBytes) ETV
attr interpolationmode none
attr source rxPkOk
attr title "packets received OK, vector(packetBytes)"
vector 90 scenario.client3.ppp[0].ppp passedUpPk:vector(packetBytes) ETV
attr interpolationmode none
attr source packetSentToUpper
attr title "packets passed to higher layer, vector(packetBytes)"
vector 91 scenario.client3.tcp.conn-27 rcvSeq:vector ETV
attr interpolationmode sample-hold
vector 92 scenario.client3.tcp.conn-27 rcvAck:vector ETV
attr interpolationmode sample-hold
vector 93 scenario.client3.tcp.conn-27 sndWnd:vector ETV
attr interpolationmode sample-hold
vector 94 scenario.client3.tcp.conn-27 unacked:vector ETV
attr interpolationmode sample-hold
vector 95 scenario.client0.tcp.conn-28 rcvSeq:vector ETV
attr interpolationmode sample-hold
vector 96 scenario.client0.tcp.conn-28 rcvAck:vector ETV
attr interpolationmode sample-hold
vector 97 scenario.client0.tcp.conn-28 unacked:vector ETV
attr interpolationmode sample-hold
vector 98 scenario.client0.tcp.conn-28 cwnd:vector ETV
attr interpolationmode sample-hold
vector 99 scenario.client0.tcp.conn-28 ssthresh:vector ETV
attr interpolationmode sample-hold
vector 100 scenario.client0.tcp.conn-28 dupAcks:vector ETV
attr interpolationmode sample-hold
vector 101 scenario.client3.tcp.conn-27 rtt:vector ETV
attr interpolationmode sample-hold
vector 102 scenario.client3.tcp.conn-27 srtt:vector ETV
attr interpolationmode sample-hold
vector 103 scenario.client3.tcp.conn-27 rttvar:vector ETV
attr interpolationmode sample-hold
vector 104 scenario.client3.tcp.conn-27 rto:vector ETV
attr interpolationmode sample-hold
vector 105 scenario.client3.tcp.conn-27 cwnd:vector ETV
attr interpolationmode sample-hold
vector 106 scenario.client3.tcp.conn-27 ssthresh:vector ETV
attr interpolationmode sample-hold
vector 107 scenario.client3.tcp.conn-27 dupAcks:vector ETV
attr interpolationmode sample-hold
vector 108 scenario.client3.tcp.conn-29 tcpRcvQueueBytes:vector ETV
attr interpolationmode sample-hold
vector 109 scenario.client3.tcp.conn-29 rcvAdv:vector ETV
attr interpolationmode sample-hold
vector 110 scenario.client3.tcp.conn-29 rcvWnd:vector ETV
attr interpolationmode sample-hold
vector 111 scenario.client3.tcp.conn-29 sndAck:vector ETV
attr interpolationmode sample-hold
vector 112 scenario.client3.ppp[1].ppp rcvdPkFromHl:vector(packetBytes) ETV
attr interpolationmode none
attr source packetReceivedFromUpper
attr title "packets received from higher layer, vector(packetBytes)"
vector 113 scenario.client3.ppp[1].ppp.queue packetPushed:vector(packetBytes) ETV
attr interpolationmode none
attr title "packet pushed, vector(packetBytes)"
vector 114 scenario.client3.ppp[1].ppp.queue queueLength:vector ETV
attr interpolationmode sample-hold
attr source "count(packetPushed) - count(packetPopped) - count(packetRemoved) - count(packetDropped)"
attr title "queue length, vector"
vector 115 scenario.client3.ppp[1].ppp.queue packetPopped:vector(packetBytes) ETV
attr interpolationmode none
attr title "packet popped, vector(packetBytes)"
vector 116 scenario.client3.ppp[1].ppp.queue queueingTime:vector ETV
attr interpolationmode none
attr source queueingTime(packetPopped)
attr title "queueing times, vector"
attr unit s
vector 117 scenario.client3.ppp[1].ppp txPk:vector(packetBytes) ETV
attr interpolationmode none
attr source packetSentToLower
attr title "packets transmitted, vector(packetBytes)"
vector 118 scenario.client1.ppp[2].ppp rxPkOk:vector(packetBytes) ETV
attr interpolationmode none
attr source rxPkOk
attr title "packets received OK, vector(packetBytes)"
vector 119 scenario.client1.ppp[2].ppp passedUpPk:vector(packetBytes) ETV
attr interpolationmode none
attr source packetSentToUpper
attr title "packets passed to higher layer, vector(packetBytes)"
vector 120 scenario.client1.tcp.conn-1 rcvSeq:vector ETV
attr interpolationmode sample-hold
vector 121 scenario.client1.tcp.conn-1 rcvAck:vector ETV
attr interpolationmode sample-hold
vector 122 scenario.client1.tcp.conn-30 rcvAdv:vector ETV
attr interpolationmode sample-hold
vector 123 scenario.client1.tcp.conn-30 sndWnd:vector ETV
attr interpolationmode sample-hold
vector 124 scenario.client1.tcp.conn-30 tcpRcvQueueBytes:vector ETV
attr interpolationmode sample-hold
vector 125 scenario.client1.tcp.conn-30 rcvWnd:vector ETV
attr interpolationmode sample-hold
vector 126 scenario.client1.tcp.conn-30 sndAck:vector ETV
attr interpolationmode sample-hold
vector 127 scenario.client1.ppp[2].ppp rcvdPkFromHl:vector(packetBytes) ETV
attr interpolationmode none
attr source packetReceivedFromUpper
attr title "packets received from higher layer, vector(packetBytes)"
vector 128 scenario.client1.ppp[2].ppp.queue packetPushed:vector(packetBytes) ETV
attr interpolationmode none
attr title "packet pushed, vector(packetBytes)"
vector 129 scenario.client1.ppp[2].ppp.queue queueLength:vector ETV
attr interpolationmode sample-hold
attr source "count(packetPushed) - count(packetPopped) - count(packetRemoved) - count(packetDropped)"
attr title "queue length, vector"
vector 130 scenario.client1.ppp[2].ppp.queue packetPopped:vector(packetBytes) ETV
attr interpolationmode none
attr title "packet popped, vector(packetBytes)"
vector 131 scenario.client1.ppp[2].ppp.queue queueingTime:vector ETV
attr interpolationmode none
attr source queueingTime(packetPopped)
attr title "queueing times, vector"
attr unit s
vector 132 scenario.client1.ppp[2].ppp txPk:vector(packetBytes) ETV
attr interpolationmode none
attr source packetSentToLower
attr title "packets transmitted, vector(packetBytes)"
vector 133 scenario.client3.ppp[1].ppp rxPkOk:vector(packetBytes) ETV
attr interpolationmode none
attr source rxPkOk
attr title "packets received OK, vector(packetBytes)"
vector 134 scenario.client3.ppp[1].ppp passedUpPk:vector(packetBytes) ETV
attr interpolationmode none
attr source packetSentToUpper
attr title "packets passed to higher layer, vector(packetBytes)"
vector 135 scenario.client3.tcp.conn-29 rcvSeq:vector ETV
attr interpolationmode sample-hold
vector 136 scenario.client3.tcp.conn-29 rcvAck:vector ETV
attr interpolationmode sample-hold
vector 137 scenario.client3.tcp.conn-29 sndWnd:vector ETV
attr interpolationmode sample-hold
vector 138 scenario.client3.tcp.conn-29 unacked:vector ETV
attr interpolationmode sample-hold
vector 139 scenario.client1.tcp.conn-30 rcvSeq:vector ETV
attr interpolationmode sample-hold
vector 140 scenario.client1.tcp.conn-30 rcvAck:vector ETV
attr interpolationmode sample-hold
vector 141 scenario.client1.tcp.conn-30 unacked:vector ETV
attr interpolationmode sample-hold
vector 142 scenario.client1.tcp.conn-30 cwnd:vector ETV
attr interpolationmode sample-hold
vector 143 scenario.client1.tcp.conn-30 ssthresh:vector ETV
attr interpolationmode sample-hold
vector 144 scenario.client1.tcp.conn-30 dupAcks:vector ETV
attr interpolationmode sample-hold
vector 145 scenario.client3.tcp.conn-29 rtt:vector ETV
attr interpolationmode sample-hold
vector 146 scenario.client3.tcp.conn-29 srtt:vector ETV
attr interpolationmode sample-hold
vector 147 scenario.client3.tcp.conn-29 rttvar:vector ETV
attr interpolationmode sample-hold
vector 148 scenario.client3.tcp.conn-29 rto:vector ETV
attr interpolationmode sample-hold
vector 149 scenario.client3.tcp.conn-29 cwnd:vector ETV
attr interpolationmode sample-hold
vector 150 scenario.client3.tcp.conn-29 ssthresh:vector ETV
attr interpolationmode sample-hold
vector 151 scenario.client3.tcp.conn-29 dupAcks:vector ETV
attr interpolationmode sample-hold
vector 152 scenario.client0.tcp.conn-31 tcpRcvQueueBytes:vector ETV
attr interpolationmode sample-hold
vector 153 scenario.client0.tcp.conn-31 rcvAdv:vector ETV
attr interpolationmode sample-hold
vector 154 scenario.client0.tcp.conn-31 rcvWnd:vector ETV
attr interpolationmode sample-hold
vector 155 scenario.client0.tcp.conn-31 sndAck:vector ETV
attr interpolationmode sample-hold
vector 156 scenario.client0.tcp.conn-32 tcpRcvQueueBytes:vector ETV
attr interpolationmode sample-hold
vector 157 scenario.client0.tcp.conn-32 rcvAdv:vector ETV
attr interpolationmode sample-hold
vector 158 scenario.client0.tcp.conn-32 rcvWnd:vector ETV
attr interpolationmode sample-hold
vector 159 scenario.client0.tcp.conn-32 sndAck:vector ETV
attr interpolationmode sample-hold
vector 160 scenario.client0.ppp[0].ppp rcvdPkFromHl:vector(packetBytes) ETV
attr interpolationmode none
attr source packetReceivedFromUpper
attr title "packets received from higher layer, vector(packetBytes)"
vector 161 scenario.client0.ppp[0].ppp.queue packetPushed:vector(packetBytes) ETV
attr interpolationmode none
attr title "packet pushed, vector(packetBytes)"
vector 162 scenario.client0.ppp[0].ppp.queue queueLength:vector ETV
attr interpolationmode sample-hold
attr source "count(packetPushed) - count(packetPopped) - count(packetRemoved) - count(packetDropped)"
attr title "queue length, vector"
vector 163 scenario.client0.ppp[0].ppp.queue packetPopped:vector(packetBytes) ETV
attr interpolationmode none
attr title "packet popped, vector(packetBytes)"
vector 164 scenario.client0.ppp[0].ppp.queue queueingTime:vector ETV
attr interpolationmode none
attr source queueingTime(packetPopped)
attr title "queueing times, vector"
attr unit s
vector 165 scenario.client0.ppp[0].ppp txPk:vector(packetBytes) ETV
attr interpolationmode none
attr source packetSentToLower
attr title "packets transmitted, vector(packetBytes)"
vector 166 scenario.client3.tcp.conn-3 rcvSeq:vector ETV
attr interpolationmode sample-hold
vector 167 scenario.client3.tcp.conn-3 rcvAck:vector ETV
attr interpolationmode sample-hold
vector 168 scenario.client3.tcp.conn-33 rcvAdv:vector ETV
attr interpolationmode sample-hold
vector 169 scenario.client3.tcp.conn-33 sndWnd:vector ETV
attr interpolationmode sample-hold
vector 170 scenario.client3.tcp.conn-33 tcpRcvQueueBytes:vector ETV
attr interpolationmode sample-hold
vector 171 scenario.client3.tcp.conn-33 rcvWnd:vector ETV
attr interpolationmode sample-hold
vector 172 scenario.client3.tcp.conn-33 sndAck:vector ETV
attr interpolationmode sample-hold
vector 173 scenario.client1.ppp[0].ppp rxPkOk:vector(packetBytes) ETV
attr interpolationmode none
attr source rxPkOk
attr title "packets received OK, vector(packetBytes)"
vector 174 scenario.client1.ppp[0].ppp passedUpPk:vector(packetBytes) ETV
attr interpolationmode none
attr source packetSentToUpper
attr title "packets passed to higher layer, vector(packetBytes)"
vector 175 scenario.client1.tcp.conn-34 rcvAdv:vector ETV
attr interpolationmode sample-hold
vector 176 scenario.client1.tcp.conn-34 sndWnd:vector ETV
attr interpolationmode sample-hold
vector 177 scenario.client1.tcp.conn-34 tcpRcvQueueBytes:vector ETV
attr interpolationmode sample-hold
vector 178 scenario.client1.tcp.conn-34 rcvWnd:vector ETV
attr interpolationmode sample-hold
vector 179 scenario.client1.tcp.conn-34 sndAck:vector ETV
attr interpolationmode sample-hold
vector 180 scenario.client1.ppp[0].ppp rcvdPkFromHl:vector(packetBytes) ETV
attr interpolationmode none
attr source packetReceivedFromUpper
attr title "packets received from higher layer, vector(packetBytes)"
vector 181 scenario.client1.ppp[0].ppp.queue packetPushed:vector(packetBytes) ETV
attr interpolationmode none
attr title "packet pushed, vector(packetBytes)"
vector 182 scenario.client1.ppp[0].ppp.queue queueLength:vector ETV
attr interpolationmode sample-hold
attr source "count(packetPushed) - count(packetPopped) - count(packetRemoved) - count(packetDropped)"
attr title "queue length, vector"
vector 183 scenario.client1.ppp[0].ppp.queue packetPopped:vector(packetBytes) ETV
attr interpolationmode none
attr title "packet popped, vector(packetBytes)"
vector 184 scenario.client1.ppp[0].ppp.queue queueingTime:vector ETV
attr interpolationmode none
attr source queueingTime(packetPopped)
attr title "queueing times, vector"
attr unit s
vector 185 scenario.client1.ppp[0].ppp txPk:vector(packetBytes) ETV
attr interpolationmode none
attr source packetSentToLower
attr title "packets transmitted, vector(packetBytes)"
vector 186 scenario.client0.tcp.conn-31 rcvSeq:vector ETV
attr interpolationmode sample-hold
vector 187 scenario.client0.tcp.conn-31 rcvAck:vector ETV
attr interpolationmode sample-hold
vector 188 scenario.client0.tcp.conn-31 sndWnd:vector ETV
attr interpolationmode sample-hold
vector 189 scenario.client0.tcp.conn-31 unacked:vector ETV
attr interpolationmode sample-hold
vector 190 scenario.client0.ppp[0].ppp rxPkOk:vector(packetBytes) ETV
attr interpolationmode none
attr source rxPkOk
attr title "packets received OK, vector(packetBytes)"
vector 191 scenario.client0.ppp[0].ppp passedUpPk:vector(packetBytes) ETV
attr interpolationmode none
attr source packetSentToUpper
attr title "packets passed to higher layer, vector(packetBytes)"
vector 192 scenario.client0.tcp.conn-32 rcvSeq:vector ETV
attr interpolationmode sample-hold
vector 193 scenario.client0.tcp.conn-32 rcvAck:vector ETV
attr interpolationmode sample-hold
vector 194 scenario.client0.tcp.conn-32 sndWnd:vector ETV
attr interpolationmode sample-hold
vector 195 scenario.client0.tcp.conn-32 unacked:vector ETV
attr interpolationmode sample-hold
vector 196 scenario.client3.tcp.conn-33 rcvSeq:vector ETV
attr interpolationmode sample-hold
vector 197 scenario.client3.tcp.conn-33 rcvAck:vector ETV
attr interpolationmode sample-hold
vector 198 scenario.client3.tcp.conn-33 unacked:vector ETV
attr interpolationmode sample-hold
vector 199 scenario.client3.tcp.conn-33 cwnd:vector ETV
attr interpolationmode sample-hold
vector 200 scenario.client3.tcp.conn-33 ssthresh:vector ETV
attr interpolationmode sample-hold
vector 201 scenario.client3.tcp.conn-33 dupAcks:vector ETV
attr interpolationmode sample-hold
vector 202 scenario.client1.tcp.conn-34 rcvSeq:vector ETV
attr interpolationmode sample-hold
vector 203 scenario.client1.tcp.conn-34 rcvAck:vector ETV
attr interpolationmode sample-hold
vector 204 scenario.client1.tcp.conn-34 unacked:vector ETV
attr interpolationmode sample-hold
vector 205 scenario.client1.tcp.conn-34 cwnd:vector ETV
attr interpolationmode sample-hold
vector 206 scenario.client1.tcp.conn-34 ssthresh:vector ETV
attr interpolationmode sample-hold
vector 207 scenario.client1.tcp.conn-34 dupAcks:vector ETV
attr interpolationmode sample-hold
vector 208 scenario.client0.tcp.conn-31 rtt:vector ETV
attr interpolationmode sample-hold
vector 209 scenario.client0.tcp.conn-31 srtt:vector ETV
attr interpolationmode sample-hold
vector 210 scenario.client0.tcp.conn-31 rttvar:vector ETV
attr interpolationmode sample-hold
vector 211 scenario.client0.tcp.conn-31 rto:vector ETV
attr interpolationmode sample-hold
vector 212 scenario.client0.tcp.conn-31 cwnd:vector ETV
attr interpolationmode sample-hold
vector 213 scenario.client0.tcp.conn-31 ssthresh:vector ETV
attr interpolationmode sample-hold
vector 214 scenario.client0.tcp.conn-31 dupAcks:vector ETV
attr interpolationmode sample-hold
vector 215 scenario.client0.tcp.conn-32 rtt:vector ETV
attr interpolationmode sample-hold
vector 216 scenario.client0.tcp.conn-32 srtt:vector ETV
attr interpolationmode sample-hold
vector 217 scenario.client0.tcp.conn-32 rttvar:vector ETV
attr interpolationmode sample-hold
vector 218 scenario.client0.tcp.conn-32 rto:vector ETV
attr interpolationmode sample-hold
vector 219 scenario.client0.tcp.conn-32 cwnd:vector ETV
attr interpolationmode sample-hold
vector 220 scenario.client0.tcp.conn-32 ssthresh:vector ETV
attr interpolationmode sample-hold
vector 221 scenario.client0.tcp.conn-32 dupAcks:vector ETV
attr interpolationmode sample-hold
vector 222 scenario.client1.tcp.conn-35 tcpRcvQueueBytes:vector ETV
attr interpolationmode sample-hold
vector 223 scenario.client1.tcp.conn-35 rcvAdv:vector ETV
attr interpolationmode sample-hold
vector 224 scenario.client1.tcp.conn-35 rcvWnd:vector ETV
attr interpolationmode sample-hold
vector 225 scenario.client1.tcp.conn-35 sndAck:vector ETV
attr interpolationmode sample-hold
vector 226 scenario.client0.tcp.conn-36 rcvAdv:vector ETV
attr interpolationmode sample-hold
vector 227 scenario.client0.tcp.conn-36 sndWnd:vector ETV
attr interpolationmode sample-hold
vector 228 scenario.client0.tcp.conn-36 tcpRcvQueueBytes:vector ETV
attr interpolationmode sample-hold
vector 229 scenario.client0.tcp.conn-36 rcvWnd:vector ETV
attr interpolationmode sample-hold
vector 230 scenario.client0.tcp.conn-36 sndAck:vector ETV
attr interpolationmode sample-hold
vector 231 scenario.client1.tcp.conn-35 rcvSeq:vector ETV
attr interpolationmode sample-hold
vector 232 scenario.client1.tcp.conn-35 rcvAck:vector ETV
attr interpolationmode sample-hold
vector 233 scenario.client1.tcp.conn-35 sndWnd:vector ETV
attr interpolationmode sample-hold
vector 234 scenario.client1.tcp.conn-35 unacked:vector ETV
attr interpolationmode sample-hold
vector 235 scenario.client0.tcp.conn-36 rcvSeq:vector ETV
attr interpolationmode sample-hold
vector 236 scenario.client0.tcp.conn-36 rcvAck:vector ETV
attr interpolationmode sample-hold
vector 237 scenario.client0.tcp.conn-36 unacked:vector ETV
attr interpolationmode sample-hold
vector 238 scenario.client0.tcp.conn-36 cwnd:vector ETV
attr interpolationmode sample-hold
vector 239 scenario.client0.tcp.conn-36 ssthresh:vector ETV
attr interpolationmode sample-hold
vector 240 scenario.client0.tcp.conn-36 dupAcks:vector ETV
attr interpolationmode sample-hold
vector 241 scenario.client1.tcp.conn-35 rtt:vector ETV
attr interpolationmode sample-hold
vector 242 scenario.client1.tcp.conn-35 srtt:vector ETV
attr interpolationmode sample-hold
vector 243 scenario.client1.tcp.conn-35 rttvar:vector ETV
attr interpolationmode sample-hold
vector 244 scenario.client1.tcp.conn-35 rto:vector ETV
attr interpolationmode sample-hold
vector 245 scenario.client1.tcp.conn-35 cwnd:vector ETV
attr interpolationmode sample-hold
vector 246 scenario.client1.tcp.conn-35 ssthresh:vector ETV
attr interpolationmode sample-hold
vector 247 scenario.client1.tcp.conn-35 dupAcks:vector ETV
attr interpolationmode sample-hold
vector 248 scenario.client2.tcp.conn-37 tcpRcvQueueBytes:vector ETV
attr interpolationmode sample-hold
vector 249 scenario.client2.tcp.conn-37 rcvAdv:vector ETV
attr interpolationmode sample-hold
vector 250 scenario.client2.tcp.conn-37 rcvWnd:vector ETV
attr interpolationmode sample-hold
vector 251 scenario.client2.tcp.conn-37 sndAck:vector ETV
attr interpolationmode sample-hold
vector 252 scenario.client0.tcp.conn-38 rcvAdv:vector ETV
attr interpolationmode sample-hold
vector 253 scenario.client0.tcp.conn-38 sndWnd:vector ETV
attr interpolationmode sample-hold
vector 254 scenario.client0.tcp.conn-38 tcpRcvQueueBytes:vector ETV
attr interpolationmode sample-hold
vector 255 scenario.client0.tcp.conn-38 rcvWnd:vector ETV
attr interpolationmode sample-hold
vector 256 scenario.client0.tcp.conn-38 sndAck:vector ETV
attr interpolationmode sample-hold
vector 257 scenario.client2.tcp.conn-37 rcvSeq:vector ETV
attr interpolationmode sample-hold
vector 258 scenario.client2.tcp.conn-37 rcvAck:vector ETV
attr interpolationmode sample-hold
vector 259 scenario.client2.tcp.conn-37 sndWnd:vector ETV
attr interpolationmode sample-hold
vector 260 scenario.client2.tcp.conn-37 unacked:vector ETV
attr interpolationmode sample-hold
vector 261 scenario.client0.tcp.conn-38 rcvSeq:vector ETV
attr interpolationmode sample-hold
vector 262 scenario.client0.tcp.conn-38 rcvAck:vector ETV
attr interpolationmode sample-hold
vector 263 scenario.client0.tcp.conn-38 unacked:vector ETV
attr interpolationmode sample-hold
vector 264 scenario.client0.tcp.conn-38 cwnd:vector ETV
attr interpolationmode sample-hold
vector 265 scenario.client0.tcp.conn-38 ssthresh:vector ETV
attr interpolationmode sample-hold
vector 266 scenario.client0.tcp.conn-38 dupAcks:vector ETV
attr interpolationmode sample-hold
vector 267 scenario.client2.tcp.conn-37 rtt:vector ETV
attr interpolationmode sample-hold
vector 268 scenario.client2.tcp.conn-37 srtt:vector ETV
attr interpolationmode sample-hold
vector 269 scenario.client2.tcp.conn-37 rttvar:vector ETV
attr interpolationmode sample-hold
vector 270 scenario.client2.tcp.conn-37 rto:vector ETV
attr interpolationmode sample-hold
vector 271 scenario.client2.tcp.conn-37 cwnd:vector ETV
attr interpolationmode sample-hold
vector 272 scenario.client2.tcp.conn-37 ssthresh:vector ETV
attr interpolationmode sample-hold
vector 273 scenario.client2.tcp.conn-37 dupAcks:vector ETV
attr interpolationmode sample-hold
vector 274 scenario.client3.tcp.conn-39 tcpRcvQueueBytes:vector ETV
attr interpolationmode sample-hold
vector 275 scenario.client3.tcp.conn-39 rcvAdv:vector ETV
attr interpolationmode sample-hold
vector 276 scenario.client3.tcp.conn-39 rcvWnd:vector ETV
attr interpolationmode sample-hold
vector 277 scenario.client3.tcp.conn-39 sndAck:vector ETV
attr interpolationmode sample-hold
vector 278 scenario.client3.ppp[2].ppp rcvdPkFromHl:vector(packetBytes) ETV
attr interpolationmode none
attr source packetReceivedFromUpper
attr title "packets received from higher layer, vector(packetBytes)"
vector 279 scenario.client3.ppp[2].ppp.queue packetPushed:vector(packetBytes) ETV
attr interpolationmode none
attr title "packet pushed, vector(packetBytes)"
vector 280 scenario.client3.ppp[2].ppp.queue queueLength:vector ETV
attr interpolationmode sample-hold
attr source "count(packetPushed) - count(packetPopped) - count(packetRemoved) - count(packetDropped)"
attr title "queue length, vector"
vector 281 scenario.client3.ppp[2].ppp.queue packetPopped:vector(packetBytes) ETV
attr interpolationmode none
attr title "packet popped, vector(packetBytes)"
vector 282 scenario.client3.ppp[2].ppp.queue queueingTime:vector ETV
attr interpolationmode none
attr source queueingTime(packetPopped)
attr title "queueing times, vector"
attr unit s
vector 283 scenario.client3.ppp[2].ppp txPk:vector(packetBytes) ETV
attr interpolationmode none
attr source packetSentToLower
attr title "packets transmitted, vector(packetBytes)"
vector 284 scenario.client2.ppp[2].ppp rxPkOk:vector(packetBytes) ETV
attr interpolationmode none
attr source rxPkOk
attr title "packets received OK, vector(packetBytes)"
vector 285 scenario.client2.ppp[2].ppp passedUpPk:vector(packetBytes) ETV
attr interpolationmode none
attr source packetSentToUpper
attr title "packets passed to higher layer, vector(packetBytes)"
vector 286 scenario.client2.tcp.conn-40 rcvAdv:vector ETV
attr interpolationmode sample-hold
vector 287 scenario.client2.tcp.conn-40 sndWnd:vector ETV
attr interpolationmode sample-hold
vector 288 scenario.client2.tcp.conn-40 tcpRcvQueueBytes:vector ETV
attr interpolationmode sample-hold
vector 289 scenario.client2.tcp.conn-40 rcvWnd:vector ETV
attr interpolationmode sample-hold
vector 290 scenario.client2.tcp.conn-40 sndAck:vector ETV
attr interpolationmode sample-hold
vector 291 scenario.client2.ppp[2].ppp rcvdPkFromHl:vector(packetBytes) ETV
attr interpolationmode none
attr source packetReceivedFromUpper
attr title "packets received from higher layer, vector(packetBytes)"
vector 292 scenario.client2.ppp[2].ppp.queue packetPushed:vector(packetBytes) ETV
attr interpolationmode none
attr title "packet pushed, vector(packetBytes)"
vector 293 scenario.client2.ppp[2].ppp.queue queueLength:vector ETV
attr interpolationmode sample-hold
attr source "count(packetPushed) - count(packetPopped) - count(packetRemoved) - count(packetDropped)"
attr title "queue length, vector"
vector 294 scenario.client2.ppp[2].ppp.queue packetPopped:vector(packetBytes) ETV
attr interpolationmode none
attr title "packet popped, vector(packetBytes)"
vector 295 scenario.client2.ppp[2].ppp.queue queueingTime:vector ETV
attr interpolationmode none
attr source queueingTime(packetPopped)
attr title "queueing times, vector"
attr unit s
vector 296 scenario.client2.ppp[2].ppp txPk:vector(packetBytes) ETV
attr interpolationmode none
attr source packetSentToLower
attr title "packets transmitted, vector(packetBytes)"
vector 297 scenario.client3.ppp[2].ppp rxPkOk:vector(packetBytes) ETV
attr interpolationmode none
attr source rxPkOk
attr title "packets received OK, vector(packetBytes)"
vector 298 scenario.client3.ppp[2].ppp passedUpPk:vector(packetBytes) ETV
attr interpolationmode none
attr source packetSentToUpper
attr title "packets passed to higher layer, vector(packetBytes)"
vector 299 scenario.client3.tcp.conn-39 rcvSeq:vector ETV
attr interpolationmode sample-hold
vector 300 scenario.client3.tcp.conn-39 rcvAck:vector ETV
attr interpolationmode sample-hold
vector 301 scenario.client3.tcp.conn-39 sndWnd:vector ETV
attr interpolationmode sample-hold
vector 302 scenario.client3.tcp.conn-39 unacked:vector ETV
attr interpolationmode sample-hold
vector 303 scenario.client2.tcp.conn-40 rcvSeq:vector ETV
attr interpolationmode sample-hold
vector 304 scenario.client2.tcp.conn-40 rcvAck:vector ETV
attr interpolationmode sample-hold
vector 305 scenario.client2.tcp.conn-40 unacked:vector ETV
attr interpolationmode sample-hold
vector 306 scenario.client2.tcp.conn-40 cwnd:vector ETV
attr interpolationmode sample-hold
vector 307 scenario.client2.tcp.conn-40 ssthresh:vector ETV
attr interpolationmode sample-hold
vector 308 scenario.client2.tcp.conn-40 dupAcks:vector ETV
attr interpolationmode sample-hold
vector 309 scenario.client3.tcp.conn-39 rtt:vector ETV
attr interpolationmode sample-hold
vector 310 scenario.client3.tcp.conn-39 srtt:vector ETV
attr interpolationmode sample-hold
vector 311 scenario.client3.tcp.conn-39 rttvar:vector ETV
attr interpolationmode sample-hold
vector 312 scenario.client3.tcp.conn-39 rto:vector ETV
attr interpolationmode sample-hold
vector 313 scenario.client3.tcp.conn-39 cwnd:vector ETV
attr interpolationmode sample-hold
vector 314 scenario.client3.tcp.conn-39 ssthresh:vector ETV
attr interpolationmode sample-hold
vector 315 scenario.client3.tcp.conn-39 dupAcks:vector ETV
attr interpolationmode sample-hold
vector 316 scenario.client1.tcp.conn-41 tcpRcvQueueBytes:vector ETV
attr interpolationmode sample-hold
vector 317 scenario.client1.tcp.conn-41 rcvAdv:vector ETV
attr interpolationmode sample-hold
vector 318 scenario.client1.tcp.conn-41 rcvWnd:vector ETV
attr interpolationmode sample-hold
vector 319 scenario.client1.tcp.conn-41 sndAck:vector ETV
attr interpolationmode sample-hold
vector 320 scenario.client1.ppp[1].ppp rcvdPkFromHl:vector(packetBytes) ETV
attr interpolationmode none
attr source packetReceivedFromUpper
attr title "packets received from higher layer, vector(packetBytes)"
vector 321 scenario.client1.ppp[1].ppp.queue packetPushed:vector(packetBytes) ETV
attr interpolationmode none
attr title "packet pushed, vector(packetBytes)"
vector 322 scenario.client1.ppp[1].ppp.queue queueLength:vector ETV
attr interpolationmode sample-hold
attr source "count(packetPushed) - count(packetPopped) - count(packetRemoved) - count(packetDropped)"
attr title "queue length, vector"
vector 323 scenario.client1.ppp[1].ppp.queue packetPopped:vector(packetBytes) ETV
attr interpolationmode none
attr title "packet popped, vector(packetBytes)"
vector 324 scenario.client1.ppp[1].ppp.queue queueingTime:vector ETV
attr interpolationmode none
attr source queueingTime(packetPopped)
attr title "queueing times, vector"
attr unit s
vector 325 scenario.client1.ppp[1].ppp txPk:vector(packetBytes) ETV
attr interpolationmode none
attr source packetSentToLower
attr title "packets transmitted, vector(packetBytes)"
vector 326 scenario.client2.ppp[1].ppp rxPkOk:vector(packetBytes) ETV
attr interpolationmode none
attr source rxPkOk
attr title "packets received OK, vector(packetBytes)"
vector 327 scenario.client2.ppp[1].ppp passedUpPk:vector(packetBytes) ETV
attr interpolationmode none
attr source packetSentToUpper
attr title "packets passed to higher layer, vector(packetBytes)"
vector 328 scenario.client2.tcp.conn-42 rcvAdv:vector ETV
attr interpolationmode sample-hold
vector 329 scenario.client2.tcp.conn-42 sndWnd:vector ETV
attr interpolationmode sample-hold
vector 330 scenario.client2.tcp.conn-42 tcpRcvQueueBytes:vector ETV
attr interpolationmode sample-hold
vector 331 scenario.client2.tcp.conn-42 rcvWnd:vector ETV
attr interpolationmode sample-hold
vector 332 scenario.client2.tcp.conn-42 sndAck:vector ETV
attr interpolationmode sample-hold
vector 333 scenario.client2.ppp[1].ppp rcvdPkFromHl:vector(packetBytes) ETV
attr interpolationmode none
attr source packetReceivedFromUpper
attr title "packets received from higher layer, vector(packetBytes)"
vector 334 scenario.client2.ppp[1].ppp.queue packetPushed:vector(packetBytes) ETV
attr interpolationmode none
attr title "packet pushed, vector(packetBytes)"
vector 335 scenario.client2.ppp[1].ppp.queue queueLength:vector ETV
attr interpolationmode sample-hold
attr source "count(packetPushed) - count(packetPopped) - count(packetRemoved) - count(packetDropped)"
attr title "queue length, vector"
vector 336 scenario.client2.ppp[1].ppp.queue packetPopped:vector(packetBytes) ETV
attr interpolationmode none
attr title "packet popped, vector(packetBytes)"
vector 337 scenario.client2.ppp[1].ppp.queue queueingTime:vector ETV
attr interpolationmode none
attr source queueingTime(packetPopped)
attr title "queueing times, vector"
attr unit s
vector 338 scenario.client2.ppp[1].ppp txPk:vector(packetBytes) ETV
attr interpolationmode none
attr source packetSentToLower
attr title "packets transmitted, vector(packetBytes)"
vector 339 scenario.client1.ppp[1].ppp rxPkOk:vector(packetBytes) ETV
attr interpolationmode none
attr source rxPkOk
attr title "packets received OK, vector(packetBytes)"
vector 340 scenario.client1.ppp[1].ppp passedUpPk:vector(packetBytes) ETV
attr interpolationmode none
attr source packetSentToUpper
attr title "packets passed to higher layer, vector(packetBytes)"
vector 341 scenario.client1.tcp.conn-41 rcvSeq:vector ETV
attr interpolationmode sample-hold
vector 342 scenario.client1.tcp.conn-41 rcvAck:vector ETV
attr interpolationmode sample-hold
vector 343 scenario.client1.tcp.conn-41 sndWnd:vector ETV
attr interpolationmode sample-hold
vector 344 scenario.client1.tcp.conn-41 unacked:vector ETV
attr interpolationmode sample-hold
vector 345 scenario.client2.tcp.conn-42 rcvSeq:vector ETV
attr interpolationmode sample-hold
vector 346 scenario.client2.tcp.conn-42 rcvAck:vector ETV
attr interpolationmode sample-hold
vector 347 scenario.client2.tcp.conn-42 unacked:vector ETV
attr interpolationmode sample-hold
vector 348 scenario.client2.tcp.conn-42 cwnd:vector ETV
attr interpolationmode sample-hold
vector 349 scenario.client2.tcp.conn-42 ssthresh:vector ETV
attr interpolationmode sample-hold
vector 350 scenario.client2.tcp.conn-42 dupAcks:vector ETV
attr interpolationmode sample-hold
vector 351 scenario.client1.tcp.conn-41 rtt:vector ETV
attr interpolationmode sample-hold
vector 352 scenario.client1.tcp.conn-41 srtt:vector ETV
attr interpolationmode sample-hold
vector 353 scenario.client1.tcp.conn-41 rttvar:vector ETV
attr interpolationmode sample-hold
vector 354 scenario.client1.tcp.conn-41 rto:vector ETV
attr interpolationmode sample-hold
vector 355 scenario.client1.tcp.conn-41 cwnd:vector ETV
attr interpolationmode sample-hold
vector 356 scenario.client1.tcp.conn-41 ssthresh:vector ETV
attr interpolationmode sample-hold
vector 357 scenario.client1.tcp.conn-41 dupAcks:vector ETV
attr interpolationmode sample-hold
vector 358 scenario.client2.tcp.conn-43 tcpRcvQueueBytes:vector ETV
attr interpolationmode sample-hold
vector 359 scenario.client2.tcp.conn-43 rcvAdv:vector ETV
attr interpolationmode sample-hold
vector 360 scenario.client2.tcp.conn-43 rcvWnd:vector ETV
attr interpolationmode sample-hold
vector 361 scenario.client2.tcp.conn-43 sndAck:vector ETV
attr interpolationmode sample-hold
vector 362 scenario.client3.tcp.conn-44 rcvAdv:vector ETV
attr interpolationmode sample-hold
vector 363 scenario.client3.tcp.conn-44 sndWnd:vector ETV
attr interpolationmode sample-hold
vector 364 scenario.client3.tcp.conn-44 tcpRcvQueueBytes:vector ETV
attr interpolationmode sample-hold
vector 365 scenario.client3.tcp.conn-44 rcvWnd:vector ETV
attr interpolationmode sample-hold
vector 366 scenario.client3.tcp.conn-44 sndAck:vector ETV
attr interpolationmode sample-hold
vector 367 scenario.client2.tcp.conn-43 rcvSeq:vector ETV
attr interpolationmode sample-hold
vector 368 scenario.client2.tcp.conn-43 rcvAck:vector ETV
attr interpolationmode sample-hold
vector 369 scenario.client2.tcp.conn-43 sndWnd:vector ETV
attr interpolationmode sample-hold
vector 370 scenario.client2.tcp.conn-43 unacked:vector ETV
attr interpolationmode sample-hold
vector 371 scenario.client3.tcp.conn-44 rcvSeq:vector ETV
attr interpolationmode sample-hold
vector 372 scenario.client3.tcp.conn-44 rcvAck:vector ETV
attr interpolationmode sample-hold
vector 373 scenario.client3.tcp.conn-44 unacked:vector ETV
attr interpolationmode sample-hold
vector 374 scenario.client3.tcp.conn-44 cwnd:vector ETV
attr interpolationmode sample-hold
vector 375 scenario.client3.tcp.conn-44 ssthresh:vector ETV
attr interpolationmode sample-hold
vector 376 scenario.client3.tcp.conn-44 dupAcks:vector ETV
attr interpolationmode sample-hold
vector 377 scenario.client2.tcp.conn-43 rtt:vector ETV
attr interpolationmode sample-hold
vector 378 scenario.client2.tcp.conn-43 srtt:vector ETV
attr interpolationmode sample-hold
vector 379 scenario.client2.tcp.conn-43 rttvar:vector ETV
attr interpolationmode sample-hold
vector 380 scenario.client2.tcp.conn-43 rto:vector ETV
attr interpolationmode sample-hold
vector 381 scenario.client2.tcp.conn-43 cwnd:vector ETV
attr interpolationmode sample-hold
vector 382 scenario.client2.tcp.conn-43 ssthresh:vector ETV
attr interpolationmode sample-hold
vector 383 scenario.client2.tcp.conn-43 dupAcks:vector ETV
attr interpolationmode sample-hold
vector 384 scenario.client2.tcp.conn-45 tcpRcvQueueBytes:vector ETV
attr interpolationmode sample-hold
vector 385 scenario.client2.tcp.conn-45 rcvAdv:vector ETV
attr interpolationmode sample-hold
vector 386 scenario.client2.tcp.conn-45 rcvWnd:vector ETV
attr interpolationmode sample-hold
vector 387 scenario.client2.tcp.conn-45 sndAck:vector ETV
attr interpolationmode sample-hold
vector 388 scenario.client1.tcp.conn-46 rcvAdv:vector ETV
attr interpolationmode sample-hold
vector 389 scenario.client1.tcp.conn-46 sndWnd:vector ETV
attr interpolationmode sample-hold
vector 390 scenario.client1.tcp.conn-46 tcpRcvQueueBytes:vector ETV
attr interpolationmode sample-hold
vector 391 scenario.client1.tcp.conn-46 rcvWnd:vector ETV
attr interpolationmode sample-hold
vector 392 scenario.client1.tcp.conn-46 sndAck:vector ETV
attr interpolationmode sample-hold
vector 393 scenario.client2.tcp.conn-45 rcvSeq:vector ETV
attr interpolationmode sample-hold
vector 394 scenario.client2.tcp.conn-45 rcvAck:vector ETV
attr interpolationmode sample-hold
vector 395 scenario.client2.tcp.conn-45 sndWnd:vector ETV
attr interpolationmode sample-hold
vector 396 scenario.client2.tcp.conn-45 unacked:vector ETV
attr interpolationmode sample-hold
vector 397 scenario.client1.tcp.conn-46 rcvSeq:vector ETV
attr interpolationmode sample-hold
vector 398 scenario.client1.tcp.conn-46 rcvAck:vector ETV
attr interpolationmode sample-hold
vector 399 scenario.client1.tcp.conn-46 unacked:vector ETV
attr interpolationmode sample-hold
vector 400 scenario.client1.tcp.conn-46 cwnd:vector ETV
attr interpolationmode sample-hold
vector 401 scenario.client1.tcp.conn-46 ssthresh:vector ETV
attr interpolationmode sample-hold
vector 402 scenario.client1.tcp.conn-46 dupAcks:vector ETV
attr interpolationmode sample-hold
vector 403 scenario.client2.tcp.conn-45 rtt:vector ETV
attr interpolationmode sample-hold
vector 404 scenario.client2.tcp.conn-45 srtt:vector ETV
attr interpolationmode sample-hold
vector 405 scenario.client2.tcp.conn-45 rttvar:vector ETV
attr interpolationmode sample-hold
vector 406 scenario.client2.tcp.conn-45 rto:vector ETV
attr interpolationmode sample-hold
vector 407 scenario.client2.tcp.conn-45 cwnd:vector ETV
attr interpolationmode sample-hold
vector 408 scenario.client2.tcp.conn-45 ssthresh:vector ETV
attr interpolationmode sample-hold
vector 409 scenario.client2.tcp.conn-45 dupAcks:vector ETV
attr interpolationmode sample-hold
vector 410 scenario.client1.tcp.conn-47 tcpRcvQueueBytes:vector ETV
attr interpolationmode sample-hold
vector 411 scenario.client1.tcp.conn-47 rcvAdv:vector ETV
attr interpolationmode sample-hold
vector 412 scenario.client1.tcp.conn-47 rcvWnd:vector ETV
attr interpolationmode sample-hold
vector 413 scenario.client1.tcp.conn-47 sndAck:vector ETV
attr interpolationmode sample-hold
vector 414 scenario.client3.tcp.conn-48 rcvAdv:vector ETV
attr interpolationmode sample-hold
vector 415 scenario.client3.tcp.conn-48 sndWnd:vector ETV
attr interpolationmode sample-hold
vector 416 scenario.client3.tcp.conn-48 tcpRcvQueueBytes:vector ETV
attr interpolationmode sample-hold
vector 417 scenario.client3.tcp.conn-48 rcvWnd:vector ETV
attr interpolationmode sample-hold
vector 418 scenario.client3.tcp.conn-48 sndAck:vector ETV
attr interpolationmode sample-hold
vector 419 scenario.client1.tcp.conn-47 rcvSeq:vector ETV
attr interpolationmode sample-hold
vector 420 scenario.client1.tcp.conn-47 rcvAck:vector ETV
attr interpolationmode sample-hold
vector 421 scenario.client1.tcp.conn-47 sndWnd:vector ETV
attr interpolationmode sample-hold
vector 422 scenario.client1.tcp.conn-47 unacked:vector ETV
attr interpolationmode sample-hold
vector 423 scenario.client3.tcp.conn-48 rcvSeq:vector ETV
attr interpolationmode sample-hold
vector 424 scenario.client3.tcp.conn-48 rcvAck:vector ETV
attr interpolationmode sample-hold
vector 425 scenario.client3.tcp.conn-48 unacked:vector ETV
attr interpolationmode sample-hold
vector 426 scenario.client3.tcp.conn-48 cwnd:vector ETV
attr interpolationmode sample-hold
vector 427 scenario.client3.tcp.conn-48 ssthresh:vector ETV
attr interpolationmode sample-hold
vector 428 scenario.client3.tcp.conn-48 dupAcks:vector ETV
attr interpolationmode sample-hold
vector 429 scenario.client1.tcp.conn-47 rtt:vector ETV
attr interpolationmode sample-hold
vector 430 scenario.client1.tcp.conn-47 srtt:vector ETV
attr interpolationmode sample-hold
vector 431 scenario.client1.tcp.conn-47 rttvar:vector ETV
attr interpolationmode sample-hold
vector 432 scenario.client1.tcp.conn-47 rto:vector ETV
attr interpolationmode sample-hold
vector 433 scenario.client1.tcp.conn-47 cwnd:vector ETV
attr interpolationmode sample-hold
vector 434 scenario.client1.tcp.conn-47 ssthresh:vector ETV
attr interpolationmode sample-hold
vector 435 scenario.client1.tcp.conn-47 dupAcks:vector ETV
attr interpolationmode sample-hold
vector 436 scenario.client2.tcp.conn-49 tcpRcvQueueBytes:vector ETV
attr interpolationmode sample-hold
vector 437 scenario.client2.tcp.conn-49 rcvAdv:vector ETV
attr interpolationmode sample-hold
vector 438 scenario.client2.tcp.conn-49 rcvWnd:vector ETV
attr interpolationmode sample-hold
vector 439 scenario.client2.tcp.conn-49 sndAck:vector ETV
attr interpolationmode sample-hold
vector 440 scenario.client3.tcp.conn-50 tcpRcvQueueBytes:vector ETV
attr interpolationmode sample-hold
vector 441 scenario.client3.tcp.conn-50 rcvAdv:vector ETV
attr interpolationmode sample-hold
vector 442 scenario.client3.tcp.conn-50 rcvWnd:vector ETV
attr interpolationmode sample-hold
vector 443 scenario.client3.tcp.conn-50 sndAck:vector ETV
attr interpolationmode sample-hold
vector 444 scenario.client2.ppp[3].ppp rcvdPkFromHl:vector(packetBytes) ETV
attr interpolationmode none
attr source packetReceivedFromUpper
attr title "packets received from higher layer, vector(packetBytes)"
vector 445 scenario.client2.ppp[3].ppp.queue packetPushed:vector(packetBytes) ETV
attr interpolationmode none
attr title "packet pushed, vector(packetBytes)"
vector 446 scenario.client2.ppp[3].ppp.queue queueLength:vector ETV
attr interpolationmode sample-hold
attr source "count(packetPushed) - count(packetPopped) - count(packetRemoved) - count(packetDropped)"
attr title "queue length, vector"
vector 447 scenario.client2.ppp[3].ppp.queue packetPopped:vector(packetBytes) ETV
attr interpolationmode none
attr title "packet popped, vector(packetBytes)"
vector 448 scenario.client2.ppp[3].ppp.queue queueingTime:vector ETV
attr interpolationmode none
attr source queueingTime(packetPopped)
attr title "queueing times, vector"
attr unit s
vector 449 scenario.client2.ppp[3].ppp txPk:vector(packetBytes) ETV
attr interpolationmode none
attr source packetSentToLower
attr title "packets transmitted, vector(packetBytes)"
vector 450 scenario.client3.ppp[3].ppp rcvdPkFromHl:vector(packetBytes) ETV
attr interpolationmode none
attr source packetReceivedFromUpper
attr title "packets received from higher layer, vector(packetBytes)"
vector 451 scenario.client3.ppp[3].ppp.queue packetPushed:vector(packetBytes) ETV
attr interpolationmode none
attr title "packet pushed, vector(packetBytes)"
vector 452 scenario.client3.ppp[3].ppp.queue queueLength:vector ETV
attr interpolationmode sample-hold
attr source "count(packetPushed) - count(packetPopped) - count(packetRemoved) - count(packetDropped)"
attr title "queue length, vector"
vector 453 scenario.client3.ppp[3].ppp.queue packetPopped:vector(packetBytes) ETV
attr interpolationmode none
attr title "packet popped, vector(packetBytes)"
vector 454 scenario.client3.ppp[3].ppp.queue queueingTime:vector ETV
attr interpolationmode none
attr source queueingTime(packetPopped)
attr title "queueing times, vector"
attr unit s
vector 455 scenario.client3.ppp[3].ppp txPk:vector(packetBytes) ETV
attr interpolationmode none
attr source packetSentToLower
attr title "packets transmitted, vector(packetBytes)"
vector 456 scenario.client4.ppp[2].ppp rxPkOk:vector(packetBytes) ETV
attr interpolationmode none
attr source rxPkOk
attr title "packets received OK, vector(packetBytes)"
vector 457 scenario.client4.ppp[2].ppp passedUpPk:vector(packetBytes) ETV
attr interpolationmode none
attr source packetSentToUpper
attr title "packets passed to higher layer, vector(packetBytes)"
vector 458 scenario.client4.ppp[3].ppp rxPkOk:vector(packetBytes) ETV
attr interpolationmode none
attr source rxPkOk
attr title "packets received OK, vector(packetBytes)"
vector 459 scenario.client4.ppp[3].ppp passedUpPk:vector(packetBytes) ETV
attr interpolationmode none
attr source packetSentToUpper
attr title "packets passed to higher layer, vector(packetBytes)"
vector 460 scenario.client4.tcp.conn-4 rcvSeq:vector ETV
attr interpolationmode sample-hold
vector 461 scenario.client4.tcp.conn-4 rcvAck:vector ETV
attr interpolationmode sample-hold
vector 462 scenario.client4.tcp.conn-51 rcvAdv:vector ETV
attr interpolationmode sample-hold
vector 463 scenario.client4.tcp.conn-51 sndWnd:vector ETV
attr interpolationmode sample-hold
vector 464 scenario.client4.tcp.conn-51 tcpRcvQueueBytes:vector ETV
attr interpolationmode sample-hold
vector 465 scenario.client4.tcp.conn-51 rcvWnd:vector ETV
attr interpolationmode sample-hold
vector 466 scenario.client4.tcp.conn-51 sndAck:vector ETV
attr interpolationmode sample-hold
vector 467 scenario.client4.tcp.conn-52 rcvAdv:vector ETV
attr interpolationmode sample-hold
vector 468 scenario.client4.tcp.conn-52 sndWnd:vector ETV
attr interpolationmode sample-hold
vector 469 scenario.client4.tcp.conn-52 tcpRcvQueueBytes:vector ETV
attr interpolationmode sample-hold
vector 470 scenario.client4.tcp.conn-52 rcvWnd:vector ETV
attr interpolationmode sample-hold
vector 471 scenario.client4.tcp.conn-52 sndAck:vector ETV
attr interpolationmode sample-hold
vector 472 scenario.client4.ppp[2].ppp rcvdPkFromHl:vector(packetBytes) ETV
attr interpolationmode none
attr source packetReceivedFromUpper
attr title "packets received from higher layer, vector(packetBytes)"
vector 473 scenario.client4.ppp[2].ppp.queue packetPushed:vector(packetBytes) ETV
attr interpolationmode none
attr title "packet pushed, vector(packetBytes)"
vector 474 scenario.client4.ppp[2].ppp.queue queueLength:vector ETV
attr interpolationmode sample-hold
attr source "count(packetPushed) - count(packetPopped) - count(packetRemoved) - count(packetDropped)"
attr title "queue length, vector"
vector 475 scenario.client4.ppp[2].ppp.queue packetPopped:vector(packetBytes) ETV
attr interpolationmode none
attr title "packet popped, vector(packetBytes)"
vector 476 scenario.client4.ppp[2].ppp.queue queueingTime:vector ETV
attr interpolationmode none
attr source queueingTime(packetPopped)
attr title "queueing times, vector"
attr unit s
vector 477 scenario.client4.ppp[2].ppp txPk:vector(packetBytes) ETV
attr interpolationmode none
attr source packetSentToLower
attr title "packets transmitted, vector(packetBytes)"
vector 478 scenario.client4.ppp[3].ppp rcvdPkFromHl:vector(packetBytes) ETV
attr interpolationmode none
attr source packetReceivedFromUpper
attr title "packets received from higher layer, vector(packetBytes)"
vector 479 scenario.client4.ppp[3].ppp.queue packetPushed:vector(packetBytes) ETV
attr interpolationmode none
attr title "packet pushed, vector(packetBytes)"
vector 480 scenario.client4.ppp[3].ppp.queue queueLength:vector ETV
attr interpolationmode sample-hold
attr source "count(packetPushed) - count(packetPopped) - count(packetRemoved) - count(packetDropped)"
attr title "queue length, vector"
vector 481 scenario.client4.ppp[3].ppp.queue packetPopped:vector(packetBytes) ETV
attr interpolationmode none
attr title "packet popped, vector(packetBytes)"
vector 482 scenario.client4.ppp[3].ppp.queue queueingTime:vector ETV
attr interpolationmode none
attr source queueingTime(packetPopped)
attr title "queueing times, vector"
attr unit s
vector 483 scenario.client4.ppp[3].ppp txPk:vector(packetBytes) ETV
attr interpolationmode none
attr source packetSentToLower
attr title "packets transmitted, vector(packetBytes)"
vector 484 scenario.client2.ppp[3].ppp rxPkOk:vector(packetBytes) ETV
attr interpolationmode none
attr source rxPkOk
attr title "packets received OK, vector(packetBytes)"
vector 485 scenario.client2.ppp[3].ppp passedUpPk:vector(packetBytes) ETV
attr interpolationmode none
attr source packetSentToUpper
attr title "packets passed to higher layer, vector(packetBytes)"
vector 486 scenario.client3.ppp[3].ppp rxPkOk:vector(packetBytes) ETV
attr interpolationmode none
attr source rxPkOk
attr title "packets received OK, vector(packetBytes)"
vector 487 scenario.client3.ppp[3].ppp passedUpPk:vector(packetBytes) ETV
attr interpolationmode none
attr source packetSentToUpper
attr title "packets passed to higher layer, vector(packetBytes)"
vector 488 scenario.client2.tcp.conn-49 rcvSeq:vector ETV
attr interpolationmode sample-hold
vector 489 scenario.client2.tcp.conn-49 rcvAck:vector ETV
attr interpolationmode sample-hold
vector 490 scenario.client2.tcp.conn-49 sndWnd:vector ETV
attr interpolationmode sample-hold
vector 491 scenario.client2.tcp.conn-49 unacked:vector ETV
attr interpolationmode sample-hold
vector 492 scenario.client3.tcp.conn-50 rcvSeq:vector ETV
attr interpolationmode sample-hold
vector 493 scenario.client3.tcp.conn-50 rcvAck:vector ETV
attr interpolationmode sample-hold
vector 494 scenario.client3.tcp.conn-50 sndWnd:vector ETV
attr interpolationmode sample-hold
vector 495 scenario.client3.tcp.conn-50 unacked:vector ETV
attr interpolationmode sample-hold
vector 496 scenario.client4.tcp.conn-51 rcvSeq:vector ETV
attr interpolationmode sample-hold
vector 497 scenario.client4.tcp.conn-51 rcvAck:vector ETV
attr interpolationmode sample-hold
vector 498 scenario.client4.tcp.conn-51 unacked:vector ETV
attr interpolationmode sample-hold
vector 499 scenario.client4.tcp.conn-51 cwnd:vector ETV
attr interpolationmode sample-hold
vector 500 scenario.client4.tcp.conn-51 ssthresh:vector ETV
attr interpolationmode sample-hold
vector 501 scenario.client4.tcp.conn-51 dupAcks:vector ETV
attr interpolationmode sample-hold
vector 502 scenario.client4.tcp.conn-52 rcvSeq:vector ETV
attr interpolationmode sample-hold
vector 503 scenario.client4.tcp.conn-52 rcvAck:vector ETV
attr interpolationmode sample-hold
vector 504 scenario.client4.tcp.conn-52 unacked:vector ETV
attr interpolationmode sample-hold
vector 505 scenario.client4.tcp.conn-52 cwnd:vector ETV
attr interpolationmode sample-hold
vector 506 scenario.client4.tcp.conn-52 ssthresh:vector ETV
attr interpolationmode sample-hold
vector 507 scenario.client4.tcp.conn-52 dupAcks:vector ETV
attr interpolationmode sample-hold
vector 508 scenario.client2.tcp.conn-49 rtt:vector ETV
attr interpolationmode sample-hold
vector 509 scenario.client2.tcp.conn-49 srtt:vector ETV
attr interpolationmode sample-hold
vector 510 scenario.client2.tcp.conn-49 rttvar:vector ETV
attr interpolationmode sample-hold
vector 511 scenario.client2.tcp.conn-49 rto:vector ETV
attr interpolationmode sample-hold
vector 512 scenario.client2.tcp.conn-49 cwnd:vector ETV
attr interpolationmode sample-hold
vector 513 scenario.client2.tcp.conn-49 ssthresh:vector ETV
attr interpolationmode sample-hold
vector 514 scenario.client2.tcp.conn-49 dupAcks:vector ETV
attr interpolationmode sample-hold
vector 515 scenario.client3.tcp.conn-50 rtt:vector ETV
attr interpolationmode sample-hold
vector 516 scenario.client3.tcp.conn-50 srtt:vector ETV
attr interpolationmode sample-hold
vector 517 scenario.client3.tcp.conn-50 rttvar:vector ETV
attr interpolationmode sample-hold
vector 518 scenario.client3.tcp.conn-50 rto:vector ETV
attr interpolationmode sample-hold
vector 519 scenario.client3.tcp.conn-50 cwnd:vector ETV
attr interpolationmode sample-hold
vector 520 scenario.client3.tcp.conn-50 ssthresh:vector ETV
attr interpolationmode sample-hold
vector 521 scenario.client3.tcp.conn-50 dupAcks:vector ETV
attr interpolationmode sample-hold
vector 522 scenario.client0.tcp.conn-53 tcpRcvQueueBytes:vector ETV
attr interpolationmode sample-hold
vector 523 scenario.client0.tcp.conn-53 rcvAdv:vector ETV
attr interpolationmode sample-hold
vector 524 scenario.client0.tcp.conn-53 rcvWnd:vector ETV
attr interpolationmode sample-hold
vector 525 scenario.client0.tcp.conn-53 sndAck:vector ETV
attr interpolationmode sample-hold
vector 526 scenario.client0.ppp[3].ppp rcvdPkFromHl:vector(packetBytes) ETV
attr interpolationmode none
attr source packetReceivedFromUpper
attr title "packets received from higher layer, vector(packetBytes)"
vector 527 scenario.client0.ppp[3].ppp.queue packetPushed:vector(packetBytes) ETV
attr interpolationmode none
attr title "packet pushed, vector(packetBytes)"
vector 528 scenario.client0.ppp[3].ppp.queue queueLength:vector ETV
attr interpolationmode sample-hold
attr source "count(packetPushed) - count(packetPopped) - count(packetRemoved) - count(packetDropped)"
attr title "queue length, vector"
vector 529 scenario.client0.ppp[3].ppp.queue packetPopped:vector(packetBytes) ETV
attr interpolationmode none
attr title "packet popped, vector(packetBytes)"
vector 530 scenario.client0.ppp[3].ppp.queue queueingTime:vector ETV
attr interpolationmode none
attr source queueingTime(packetPopped)
attr title "queueing times, vector"
attr unit s
vector 531 scenario.client0.ppp[3].ppp txPk:vector(packetBytes) ETV
attr interpolationmode none
attr source packetSentToLower
attr title "packets transmitted, vector(packetBytes)"
vector 532 scenario.client1.tcp.conn-54 tcpRcvQueueBytes:vector ETV
attr interpolationmode sample-hold
vector 533 scenario.client1.tcp.conn-54 rcvAdv:vector ETV
attr interpolationmode sample-hold
vector 534 scenario.client1.tcp.conn-54 rcvWnd:vector ETV
attr interpolationmode sample-hold
vector 535 scenario.client1.tcp.conn-54 sndAck:vector ETV
attr interpolationmode sample-hold
vector 536 scenario.client1.ppp[3].ppp rcvdPkFromHl:vector(packetBytes) ETV
attr interpolationmode none
attr source packetReceivedFromUpper
attr title "packets received from higher layer, vector(packetBytes)"
vector 537 scenario.client1.ppp[3].ppp.queue packetPushed:vector(packetBytes) ETV
attr interpolationmode none
attr title "packet pushed, vector(packetBytes)"
vector 538 scenario.client1.ppp[3].ppp.queue queueLength:vector ETV
attr interpolationmode sample-hold
attr source "count(packetPushed) - count(packetPopped) - count(packetRemoved) - count(packetDropped)"
attr title "queue length, vector"
vector 539 scenario.client1.ppp[3].ppp.queue packetPopped:vector(packetBytes) ETV
attr interpolationmode none
attr title "packet popped, vector(packetBytes)"
vector 540 scenario.client1.ppp[3].ppp.queue queueingTime:vector ETV
attr interpolationmode none
attr source queueingTime(packetPopped)
attr title "queueing times, vector"
attr unit s
vector 541 scenario.client1.ppp[3].ppp txPk:vector(packetBytes) ETV
attr interpolationmode none
attr source packetSentToLower
attr title "packets transmitted, vector(packetBytes)"
vector 542 scenario.client4.ppp[0].ppp rxPkOk:vector(packetBytes) ETV
attr interpolationmode none
attr source rxPkOk
attr title "packets received OK, vector(packetBytes)"
vector 543 scenario.client4.ppp[0].ppp passedUpPk:vector(packetBytes) ETV
attr interpolationmode none
attr source packetSentToUpper
attr title "packets passed to higher layer, vector(packetBytes)"
vector 544 scenario.client4.tcp.conn-55 rcvAdv:vector ETV
attr interpolationmode sample-hold
vector 545 scenario.client4.tcp.conn-55 sndWnd:vector ETV
attr interpolationmode sample-hold
vector 546 scenario.client4.tcp.conn-55 tcpRcvQueueBytes:vector ETV
attr interpolationmode sample-hold
vector 547 scenario.client4.tcp.conn-55 rcvWnd:vector ETV
attr interpolationmode sample-hold
vector 548 scenario.client4.tcp.conn-55 sndAck:vector ETV
attr interpolationmode sample-hold
vector 549 scenario.client4.ppp[0].ppp rcvdPkFromHl:vector(packetBytes) ETV
attr interpolationmode none
attr source packetReceivedFromUpper
attr title "packets received from higher layer, vector(packetBytes)"
vector 550 scenario.client4.ppp[0].ppp.queue packetPushed:vector(packetBytes) ETV
attr interpolationmode none
attr title "packet pushed, vector(packetBytes)"
vector 551 scenario.client4.ppp[0].ppp.queue queueLength:vector ETV
attr interpolationmode sample-hold
attr source "count(packetPushed) - count(packetPopped) - count(packetRemoved) - count(packetDropped)"
attr title "queue length, vector"
vector 552 scenario.client4.ppp[0].ppp.queue packetPopped:vector(packetBytes) ETV
attr interpolationmode none
attr title "packet popped, vector(packetBytes)"
vector 553 scenario.client4.ppp[0].ppp.queue queueingTime:vector ETV
attr interpolationmode none
attr source queueingTime(packetPopped)
attr title "queueing times, vector"
attr unit s
vector 554 scenario.client4.ppp[0].ppp txPk:vector(packetBytes) ETV
attr interpolationmode none
attr source packetSentToLower
attr title "packets transmitted, vector(packetBytes)"
vector 555 scenario.client4.ppp[1].ppp rxPkOk:vector(packetBytes) ETV
attr interpolationmode none
attr source rxPkOk
attr title "packets received OK, vector(packetBytes)"
vector 556 scenario.client4.ppp[1].ppp passedUpPk:vector(packetBytes) ETV
attr interpolationmode none
attr source packetSentToUpper
attr title "packets passed to higher layer, vector(packetBytes)"
vector 557 scenario.client4.tcp.conn-56 rcvAdv:vector ETV
attr interpolationmode sample-hold
vector 558 scenario.client4.tcp.conn-56 sndWnd:vector ETV
attr interpolationmode sample-hold
vector 559 scenario.client4.tcp.conn-56 tcpRcvQueueBytes:vector ETV
attr interpolationmode sample-hold
vector 560 scenario.client4.tcp.conn-56 rcvWnd:vector ETV
attr interpolationmode sample-hold
vector 561 scenario.client4.tcp.conn-56 sndAck:vector ETV
attr interpolationmode sample-hold
vector 562 scenario.client4.ppp[1].ppp rcvdPkFromHl:vector(packetBytes) ETV
attr interpolationmode none
attr source packetReceivedFromUpper
attr title "packets received from higher layer, vector(packetBytes)"
vector 563 scenario.client4.ppp[1].ppp.queue packetPushed:vector(packetBytes) ETV
attr interpolationmode none
attr title "packet pushed, vector(packetBytes)"
vector 564 scenario.client4.ppp[1].ppp.queue queueLength:vector ETV
attr interpolationmode sample-hold
attr source "count(packetPushed) - count(packetPopped) - count(packetRemoved) - count(packetDropped)"
attr title "queue length, vector"
vector 565 scenario.client4.ppp[1].ppp.queue packetPopped:vector(packetBytes) ETV
attr interpolationmode none
attr title "packet popped, vector(packetBytes)"
vector 566 scenario.client4.ppp[1].ppp.queue queueingTime:vector ETV
attr interpolationmode none
attr source queueingTime(packetPopped)
attr title "queueing times, vector"
attr unit s
vector 567 scenario.client4.ppp[1].ppp txPk:vector(packetBytes) ETV
attr interpolationmode none
attr source packetSentToLower
attr title "packets transmitted, vector(packetBytes)"
vector 568 scenario.client0.ppp[3].ppp rxPkOk:vector(packetBytes) ETV
attr interpolationmode none
attr source rxPkOk
attr title "packets received OK, vector(packetBytes)"
vector 569 scenario.client0.ppp[3].ppp passedUpPk:vector(packetBytes) ETV
attr interpolationmode none
attr source packetSentToUpper
attr title "packets passed to higher layer, vector(packetBytes)"
vector 570 scenario.client0.tcp.conn-53 rcvSeq:vector ETV
attr interpolationmode sample-hold
vector 571 scenario.client0.tcp.conn-53 rcvAck:vector ETV
attr interpolationmode sample-hold
vector 572 scenario.client0.tcp.conn-53 sndWnd:vector ETV
attr interpolationmode sample-hold
vector 573 scenario.client0.tcp.conn-53 unacked:vector ETV
attr interpolationmode sample-hold
vector 574 scenario.client1.ppp[3].ppp rxPkOk:vector(packetBytes) ETV
attr interpolationmode none
attr source rxPkOk
attr title "packets received OK, vector(packetBytes)"
vector 575 scenario.client1.ppp[3].ppp passedUpPk:vector(packetBytes) ETV
attr interpolationmode none
attr source packetSentToUpper
attr title "packets passed to higher layer, vector(packetBytes)"
vector 576 scenario.client1.tcp.conn-54 rcvSeq:vector ETV
attr interpolationmode sample-hold
vector 577 scenario.client1.tcp.conn-54 rcvAck:vector ETV
attr interpolationmode sample-hold
vector 578 scenario.client1.tcp.conn-54 sndWnd:vector ETV
attr interpolationmode sample-hold
vector 579 scenario.client1.tcp.conn-54 unacked:vector ETV
attr interpolationmode sample-hold
vector 580 scenario.client4.tcp.conn-55 rcvSeq:vector ETV
attr interpolationmode sample-hold
vector 581 scenario.client4.tcp.conn-55 rcvAck:vector ETV
attr interpolationmode sample-hold
vector 582 scenario.client4.tcp.conn-55 unacked:vector ETV
attr interpolationmode sample-hold
vector 583 scenario.client4.tcp.conn-55 cwnd:vector ETV
attr interpolationmode sample-hold
vector 584 scenario.client4.tcp.conn-55 ssthresh:vector ETV
attr interpolationmode sample-hold
vector 585 scenario.client4.tcp.conn-55 dupAcks:vector ETV
attr interpolationmode sample-hold
vector 586 scenario.client4.tcp.conn-56 rcvSeq:vector ETV
attr interpolationmode sample-hold
vector 587 scenario.client4.tcp.conn-56 rcvAck:vector ETV
attr interpolationmode sample-hold
vector 588 scenario.client4.tcp.conn-56 unacked:vector ETV
attr interpolationmode sample-hold
vector 589 scenario.client4.tcp.conn-56 cwnd:vector ETV
attr interpolationmode sample-hold
vector 590 scenario.client4.tcp.conn-56 ssthresh:vector ETV
attr interpolationmode sample-hold
vector 591 scenario.client4.tcp.conn-56 dupAcks:vector ETV
attr interpolationmode sample-hold
vector 592 scenario.client0.tcp.conn-53 rtt:vector ETV
attr interpolationmode sample-hold
vector 593 scenario.client0.tcp.conn-53 srtt:vector ETV
attr interpolationmode sample-hold
vector 594 scenario.client0.tcp.conn-53 rttvar:vector ETV
attr interpolationmode sample-hold
vector 595 scenario.client0.tcp.conn-53 rto:vector ETV
attr interpolationmode sample-hold
vector 596 scenario.client0.tcp.conn-53 cwnd:vector ETV
attr interpolationmode sample-hold
vector 597 scenario.client0.tcp.conn-53 ssthresh:vector ETV
attr interpolationmode sample-hold
vector 598 scenario.client0.tcp.conn-53 dupAcks:vector ETV
attr interpolationmode sample-hold
vector 599 scenario.client1.tcp.conn-54 rtt:vector ETV
attr interpolationmode sample-hold
vector 600 scenario.client1.tcp.conn-54 srtt:vector ETV
attr interpolationmode sample-hold
vector 601 scenario.client1.tcp.conn-54 rttvar:vector ETV
attr interpolationmode sample-hold
vector 602 scenario.client1.tcp.conn-54 rto:vector ETV
attr interpolationmode sample-hold
vector 603 scenario.client1.tcp.conn-54 cwnd:vector ETV
attr interpolationmode sample-hold
vector 604 scenario.client1.tcp.conn-54 ssthresh:vector ETV
attr interpolationmode sample-hold
vector 605 scenario.client1.tcp.conn-54 dupAcks:vector ETV
attr interpolationmode sample-hold
0	76587 1355 0 1587 0 4.346462860683 57 0 1 28 28
1	77942 1417 0 1774 0 5.012120442274 59 0 1 29 29
2	79359 397 0 1624 0 4.427203726432 17 0 1 8 8
3	79756 109 0 1540 0 4.255048667134 5 0 1 2 2
4	79865 1355 0 1594 0 4.347338860683 57 0 1 28 28
5	81220 1424 0 1759 0 4.807646428784 59 0 1 29 29
6	82644 346 0 1632 0 4.465971270241 15 0 1 7 7
7	82990 109 0 1545 0 4.255424667134 5 0 1 2 2
8	83099 1417 0 1767 0 5.011244442274 59 0 1 29 29
9	84516 1425 0 1752 0 4.806770428784 59 0 1 29 29
10	85941 366 0 1737 0 4.703038015076 15 0 1 7 7
11	86307 114 0 1119 0 3.901857956968 5 0 1 2 2
12	86421 414 0 1617 0 4.426327726432 17 0 1 8 8
13	86835 360 0 1639 0 4.466847270241 15 0 1 7 7
14	87195 366 0 1744 0 4.703914015076 15 0 1 7 7
15	87561 114 0 1120 0 3.901857956968 5 0 1 2 2
16	87675 114 0 1557 0 4.255924667134 5 0 1 2 2
17	87789 114 0 1572 0 4.256300667134 5 0 1 2 2
18	87903 114 0 1139 0 3.902733956968 5 0 1 2 2
19	88017 114 0 1140 0 3.902733956968 5 0 1 2 2
20	88131 377 8 1704 1.197027497177 4.604478043641 15 0 0 0 0
21	88508 479 8 1704 1.197027497177 4.604478043641 16 7504 306988 4612324 1413680792176
22	88987 422 8 1704 1.197027497177 4.604478043641 15 7504 7504 112560 844650240
23	89409 447 8 1704 1.197027497177 4.604478043641 15 0 299484 4192776 1255669327584
24	89856 762 11 1773 1.197027497177 5.011744442274 29 40 44 1183 48289
25	90618 762 11 1773 1.197027497177 5.011744442274 29 40 44 1183 48289
26	91380 1466 11 1773 1.197027497177 5.011744442274 58 0 1 29 29
27	92846 762 11 1773 1.197027497177 5.011744442274 29 40 44 1183 48289
28	93608 733 11 1773 1.197027497177 5.011744442274 29 0 0 0 0
29	94341 762 11 1773 1.197027497177 5.011744442274 29 47 51 1386 66272
30	95103 762 13 1775 1.197935497177 5.012620442274 29 47 51 1386 66272
31	95865 762 13 1775 1.197935497177 5.012620442274 29 40 44 1183 48289
32	96627 89 15 274 1.197935497177 2.086811500473 3 299256 521475 1274023 566963966425
33	96716 74 15 274 1.197935497177 2.086811500473 3 0 0 0 0
34	96790 482 15 1710 1.197935497177 4.605362043641 16 306761 306776 4908285 1505703852973
35	97272 54 15 28 1.197935497177 1.199727497177 2 7504 7504 15008 112620032
36	97326 732 15 1710 1.197935497177 4.605362043641 29 0 1 1 1
37	98058 423 15 1710 1.197935497177 4.605362043641 15 7503 7504 112559 844635233
38	98481 453 15 1710 1.197935497177 4.605362043641 15 299257 299272 4488965 1343387118415
39	98934 762 17 1766 1.197935497177 5.010860442274 29 40 44 1182 48208
40	99696 762 17 1766 1.197935497177 5.010860442274 29 40 44 1182 48208
41	100458 1466 17 1766 1.197935497177 5.010860442274 58 0 1 29 29
42	101924 762 17 1766 1.197935497177 5.010860442274 29 40 44 1182 48208
43	102686 733 17 1766 1.197935497177 5.010860442274 29 0 0 0 0
44	103419 762 17 1766 1.197935497177 5.010860442274 29 47 51 1385 66177
45	104181 762 19 1768 1.198843497177 5.011744442274 29 47 51 1385 66177
46	104943 762 19 1768 1.198843497177 5.011744442274 29 40 44 1182 48208
47	105705 453 21 1717 1.198843497177 4.606238043641 15 299483 299484 4492259 1345359394873
48	106158 453 21 1717 1.198843497177 4.606238043641 15 299257 299272 4488965 1343387118415
49	106611 423 21 1717 1.198843497177 4.606238043641 15 7503 7504 112559 844635233
50	107034 708 21 1717 1.198843497177 4.606238043641 28 0 2 15 17
51	107742 424 28 1710 1.199727497177 4.605362043641 14 299257 299271 4189693 1253823388431
52	108166 424 28 1710 1.199727497177 4.605362043641 14 299484 299484 4192776 1255669327584
53	108590 24 28 28 1.199727497177 1.199727497177 1 0 0 0 0
54	108614 27 28 28 1.199727497177 1.199727497177 1 1072 1072 1072 1149184
55	108641 33 28 28 1.199727497177 1.199727497177 1 4294967295 4294967295 4294967295 1.844674406512e+019
56	108674 354 28 1710 1.199727497177 4.605362043641 14 0 0 0 0
57	109028 439 38 1717 1.200603497177 4.606238043641 14 0.00176 0.001768 0.024648 4.3394624e-005
58	109467 519 38 1717 1.200603497177 4.606238043641 14 0.00022 0.001489176453 0.014223764829 1.6576537130129e-005
59	109986 524 38 1717 1.200603497177 4.606238043641 14 0.116200625311 0.65647 4.448509034465 1.7985301492072
60	110510 442 38 1717 1.200603497177 4.606238043641 14 1 2.6261 19.807821921658 32.002557480688
61	110952 396 38 1717 1.200603497177 4.606238043641 14 1072 8040 63784 355959744
62	111348 480 38 1717 1.200603497177 4.606238043641 14 4294967295 4294967295 60129542130 2.5825441691167e+020
63	111828 354 38 1717 1.200603497177 4.606238043641 14 0 0 0 0
64	112182 74 41 1614 1.325269325846 4.425943726432 3 0 0 0 0
65	112256 116 41 1614 1.325269325846 4.425943726432 4 7504 339049 1024651 344918983219
66	112372 83 41 1614 1.325269325846 4.425943726432 3 7504 7504 22512 168930048
67	112455 84 41 1614 1.325269325846 4.425943726432 3 0 331545 663090 219844174050
68	112539 210 44 1616 1.325269325846 4.425943726432 8 40 44 330 13634
69	112749 210 44 1616 1.325269325846 4.425943726432 8 40 44 330 13634
70	112959 404 44 1616 1.325269325846 4.425943726432 16 0 1 8 8
[...]
358	200728 106 299 1734 2.222070097965 4.702654015076 4 0 0 0 0
359	200834 155 299 1734 2.222070097965 4.702654015076 5 7504 563249 2260500 1269054054020
360	200989 118 299 1734 2.222070097965 4.702654015076 4 7504 7504 30016 225240064
361	201107 121 299 1734 2.222070097965 4.702654015076 4 0 555745 1667235 926557515075
362	201228 157 306 1740 2.222978097965 4.703538015076 5 563022 563026 2815117 1584976744753
363	201385 58 306 319 2.222978097965 2.224770097965 2 7504 7504 15008 112620032
364	201443 186 306 1740 2.222978097965 4.703538015076 7 0 1 1 1
365	201629 118 306 1740 2.222978097965 4.703538015076 4 7503 7504 30015 225225057
366	201747 126 306 1740 2.222978097965 4.703538015076 4 555518 555522 2222080 1234409881610
367	201873 126 312 1747 2.223886097965 4.704414015076 4 555744 555745 2222979 1235408908611
368	201999 126 312 1747 2.223886097965 4.704414015076 4 555518 555522 2222080 1234409881610
369	202125 118 312 1747 2.223886097965 4.704414015076 4 7503 7504 30015 225225057
370	202243 160 312 1747 2.223886097965 4.704414015076 6 0 2 4 6
371	202403 95 319 1740 2.224770097965 4.703538015076 3 555518 555521 1666558 925805189126
372	202498 95 319 1740 2.224770097965 4.703538015076 3 555745 555745 1667235 926557515075
373	202593 26 319 319 2.224770097965 2.224770097965 1 0 0 0 0
374	202619 29 319 319 2.224770097965 2.224770097965 1 1072 1072 1072 1149184
375	202648 35 319 319 2.224770097965 2.224770097965 1 4294967295 4294967295 4294967295 1.844674406512e+019
376	202683 80 319 1740 2.224770097965 4.703538015076 3 0 0 0 0
377	202763 99 329 1747 2.225646097965 4.704414015076 3 0.00176 0.001768 0.005288 9.321024e-006
378	202862 105 329 1747 2.225646097965 4.704414015076 3 0.00022 0.0005818125 0.0012153125 5.5788803515625e-007
379	202967 107 329 1747 2.225646097965 4.704414015076 3 0.50294746875 0.65647 1.73402221875 1.0140796359446
380	203074 104 329 1747 2.225646097965 4.704414015076 3 2.0123716875 2.6261 6.9373041875 16.230671881708
381	203178 89 329 1747 2.225646097965 4.704414015076 3 1072 2144 4824 8331584
382	203267 107 329 1747 2.225646097965 4.704414015076 3 4294967295 4294967295 12884901885 5.5340232195359e+019
383	203374 80 329 1747 2.225646097965 4.704414015076 3 0 0 0 0
384	203454 370 331 1749 2.233657976012 4.806386428784 14 0 0 0 0
385	203824 469 331 1749 2.233657976012 4.806386428784 15 7504 566146 7933548 4487354416440
386	204293 412 331 1749 2.233657976012 4.806386428784 14 7504 7504 105056 788340224
387	204705 435 331 1749 2.233657976012 4.806386428784 14 0 558642 7262346 4057051494132
388	205140 471 338 1755 2.234565976012 4.807270428784 15 565919 565933 8488878 4804069980242
389	205611 58 338 351 2.234565976012 2.236357976012 2 7504 7504 15008 112620032
390	205669 714 338 1755 2.234565976012 4.807270428784 27 0 1 1 1
391	206383 412 338 1755 2.234565976012 4.807270428784 14 7503 7504 105055 788325217
392	206795 440 338 1755 2.234565976012 4.807270428784 14 558415 558429 7817904 4365687354064
393	207235 440 344 1762 2.235473976012 4.808146428784 14 558641 558642 7820987 4369131261013
394	207675 440 344 1762 2.235473976012 4.808146428784 14 558415 558429 7817904 4365687354064
395	208115 412 344 1762 2.235473976012 4.808146428784 14 7503 7504 105055 788325217
396	208527 688 344 1762 2.235473976012 4.808146428784 26 0 2 14 16
397	209215 409 351 1755 2.236357976012 4.807270428784 13 558415 558428 7259475 4053844406023
398	209624 409 351 1755 2.236357976012 4.807270428784 13 558642 558642 7262346 4057051494132
399	210033 26 351 351 2.236357976012 2.236357976012 1 0 0 0 0
400	210059 29 351 351 2.236357976012 2.236357976012 1 1072 1072 1072 1149184
401	210088 35 351 351 2.236357976012 2.236357976012 1 4294967295 4294967295 4294967295 1.844674406512e+019
402	210123 344 351 1755 2.236357976012 4.807270428784 13 0 0 0 0
403	210467 423 361 1762 2.237233976012 4.808146428784 13 0.00176 0.002144 0.023264 4.1767936e-005
404	210890 496 361 1762 2.237233976012 4.808146428784 13 0.00022 0.001486567453 0.012858027829 1.4709937653971e-005
405	211386 501 361 1762 2.237233976012 4.808146428784 13 0.132782365739 0.65647 4.332415979466 1.7850611696447
406	211887 432 361 1762 2.237233976012 4.808146428784 13 1 2.6261 18.807821921658 31.002557480688
407	212319 383 361 1762 2.237233976012 4.808146428784 13 1072 7504 55744 291318144
408	212702 461 361 1762 2.237233976012 4.808146428784 13 4294967295 4294967295 55834574835 2.3980767284656e+020
409	213163 344 361 1762 2.237233976012 4.808146428784 13 0 0 0 0
410	213507 105 393 1629 2.385313605152 4.465587270241 4 0 0 0 0
411	213612 154 393 1629 2.385313605152 4.465587270241 5 7504 604060 2423744 1459610244416
412	213766 117 393 1629 2.385313605152 4.465587270241 4 7504 7504 30016 225240064
413	213883 120 393 1629 2.385313605152 4.465587270241 4 0 596556 1789668 1067637183408
414	214003 156 400 1635 2.386221605152 4.466471270241 5 603833 603837 3019172 1823079913132
415	214159 58 400 413 2.386221605152 2.388013605152 2 7504 7504 15008 112620032
416	214217 184 400 1635 2.386221605152 4.466471270241 7 0 1 1 1
417	214401 117 400 1635 2.386221605152 4.466471270241 4 7503 7504 30015 225225057
418	214518 125 400 1635 2.386221605152 4.466471270241 4 596329 596333 2385324 1422442646254
419	214643 125 406 1642 2.387129605152 4.467347270241 4 596555 596556 2386223 1423515051433
420	214768 125 406 1642 2.387129605152 4.467347270241 4 596329 596333 2385324 1422442646254
421	214893 117 406 1642 2.387129605152 4.467347270241 4 7503 7504 30015 225225057
422	215010 158 406 1642 2.387129605152 4.467347270241 6 0 2 4 6
423	215168 94 413 1635 2.388013605152 4.466471270241 3 596329 596332 1788991 1066829599365
424	215262 94 413 1635 2.388013605152 4.466471270241 3 596556 596556 1789668 1067637183408
425	215356 26 413 413 2.388013605152 2.388013605152 1 0 0 0 0
426	215382 29 413 413 2.388013605152 2.388013605152 1 1072 1072 1072 1149184
427	215411 35 413 413 2.388013605152 2.388013605152 1 4294967295 4294967295 4294967295 1.844674406512e+019
428	215446 79 413 1635 2.388013605152 4.466471270241 3 0 0 0 0
429	215525 98 423 1642 2.388889605152 4.467347270241 3 0.00176 0.001768 0.005288 9.321024e-006
430	215623 104 423 1642 2.388889605152 4.467347270241 3 0.00022 0.0005818125 0.0012153125 5.5788803515625e-007
431	215727 106 423 1642 2.388889605152 4.467347270241 3 0.50294746875 0.65647 1.73402221875 1.0140796359446
432	215833 103 423 1642 2.388889605152 4.467347270241 3 2.0123716875 2.6261 6.9373041875 16.230671881708
433	215936 88 423 1642 2.388889605152 4.467347270241 3 1072 2144 4824 8331584
434	216024 106 423 1642 2.388889605152 4.467347270241 3 4294967295 4294967295 12884901885 5.5340232195359e+019
435	216130 79 423 1642 2.388889605152 4.467347270241 3 0 0 0 0
436	216209 54 1067 1111 3.899657956968 3.901473956968 2 0 0 0 0
437	216263 94 1067 1111 3.899657956968 3.901473956968 3 7504 982646 1972796 1931242632648
438	216357 60 1067 1111 3.899657956968 3.901473956968 2 7504 7504 15008 112620032
439	216417 59 1067 1111 3.899657956968 3.901473956968 2 0 975142 975142 950901920164
440	216476 54 1069 1112 3.899657956968 3.901473956968 2 0 0 0 0
441	216530 94 1069 1112 3.899657956968 3.901473956968 3 7504 982646 1972796 1931242632648
442	216624 60 1069 1112 3.899657956968 3.901473956968 2 7504 7504 15008 112620032
443	216684 59 1069 1112 3.899657956968 3.901473956968 2 0 975142 975142 950901920164
444	216743 56 1073 1117 3.899657956968 3.901473956968 2 41 44 85 3617
445	216799 56 1073 1117 3.899657956968 3.901473956968 2 41 44 85 3617
446	216855 108 1073 1117 3.899657956968 3.901473956968 4 0 1 2 2
447	216963 56 1073 1117 3.899657956968 3.901473956968 2 41 44 85 3617
448	217019 54 1073 1117 3.899657956968 3.901473956968 2 0 0 0 0
449	217073 56 1073 1117 3.899657956968 3.901473956968 2 48 51 99 4905
450	217129 56 1074 1118 3.899657956968 3.901473956968 2 41 44 85 3617
451	217185 56 1074 1118 3.899657956968 3.901473956968 2 41 44 85 3617
452	217241 108 1074 1118 3.899657956968 3.901473956968 4 0 1 2 2
453	217349 56 1074 1118 3.899657956968 3.901473956968 2 41 44 85 3617
454	217405 54 1074 1118 3.899657956968 3.901473956968 2 0 0 0 0
455	217459 56 1074 1118 3.899657956968 3.901473956968 2 48 51 99 4905
456	217515 56 1092 1121 3.900565956968 3.902357956968 2 48 51 99 4905
457	217571 56 1092 1121 3.900565956968 3.902357956968 2 41 44 85 3617
458	217627 56 1093 1122 3.900565956968 3.902357956968 2 48 51 99 4905
459	217683 56 1093 1122 3.900565956968 3.902357956968 2 41 44 85 3617
460	217739 130 1096 1523 3.900565956968 4.254132667134 4 974914 1063306 4076346 4161954021372
461	217869 108 1096 1523 3.900565956968 4.254132667134 4 0 0 0 0
462	217977 96 1096 1125 3.900565956968 3.902357956968 3 982419 982419 2947257 2895441274683
463	218073 60 1096 1125 3.900565956968 3.902357956968 2 7504 7504 15008 112620032
464	218133 81 1096 1125 3.900565956968 3.902357956968 3 0 1 1 1
465	218214 60 1096 1125 3.900565956968 3.902357956968 2 7503 7504 15007 112605025
466	218274 64 1096 1125 3.900565956968 3.902357956968 2 974915 974916 1949831 1900920464281
467	218338 96 1097 1126 3.900565956968 3.902357956968 3 982419 982419 2947257 2895441274683
468	218434 60 1097 1126 3.900565956968 3.902357956968 2 7504 7504 15008 112620032
469	218494 81 1097 1126 3.900565956968 3.902357956968 3 0 1 1 1
470	218575 60 1097 1126 3.900565956968 3.902357956968 2 7503 7504 15007 112605025
471	218635 64 1097 1126 3.900565956968 3.902357956968 2 974915 974916 1949831 1900920464281
472	218699 56 1100 1132 3.900565956968 3.902357956968 2 40 44 84 3536
473	218755 56 1100 1132 3.900565956968 3.902357956968 2 40 44 84 3536
474	218811 108 1100 1132 3.900565956968 3.902357956968 4 0 1 2 2
475	218919 56 1100 1132 3.900565956968 3.902357956968 2 40 44 84 3536
476	218975 54 1100 1132 3.900565956968 3.902357956968 2 0 0 0 0
477	219029 56 1100 1132 3.900565956968 3.902357956968 2 47 51 98 4810
478	219085 56 1101 1134 3.900565956968 3.902357956968 2 40 44 84 3536
479	219141 56 1101 1134 3.900565956968 3.902357956968 2 40 44 84 3536
480	219197 108 1101 1134 3.900565956968 3.902357956968 4 0 1 2 2
481	219305 56 1101 1134 3.900565956968 3.902357956968 2 40 44 84 3536
482	219361 54 1101 1134 3.900565956968 3.902357956968 2 0 0 0 0
483	219415 56 1101 1134 3.900565956968 3.902357956968 2 47 51 98 4810
484	219471 56 1107 1141 3.901473956968 3.903233956968 2 47 51 98 4810
485	219527 56 1107 1141 3.901473956968 3.903233956968 2 40 44 84 3536
486	219583 56 1108 1142 3.901473956968 3.903233956968 2 47 51 98 4810
487	219639 56 1108 1142 3.901473956968 3.903233956968 2 40 44 84 3536
488	219695 64 1111 1145 3.901473956968 3.903233956968 2 975141 975142 1950283 1901801890045
489	219759 64 1111 1145 3.901473956968 3.903233956968 2 974915 974916 1949831 1900920464281
490	219823 60 1111 1145 3.901473956968 3.903233956968 2 7503 7504 15007 112605025
491	219883 54 1111 1145 3.901473956968 3.903233956968 2 0 1 1 1
492	219937 64 1112 1146 3.901473956968 3.903233956968 2 975141 975142 1950283 1901801890045
493	220001 64 1112 1146 3.901473956968 3.903233956968 2 974915 974916 1949831 1900920464281
494	220065 60 1112 1146 3.901473956968 3.903233956968 2 7503 7504 15007 112605025
495	220125 54 1112 1146 3.901473956968 3.903233956968 2 0 1 1 1
496	220179 32 1125 1125 3.902357956968 3.902357956968 1 974915 974915 974915 950459257225
497	220211 32 1125 1125 3.902357956968 3.902357956968 1 975142 975142 975142 950901920164
498	220243 27 1125 1125 3.902357956968 3.902357956968 1 0 0 0 0
499	220270 30 1125 1125 3.902357956968 3.902357956968 1 1072 1072 1072 1149184
500	220300 36 1125 1125 3.902357956968 3.902357956968 1 4294967295 4294967295 4294967295 1.844674406512e+019
501	220336 27 1125 1125 3.902357956968 3.902357956968 1 0 0 0 0
502	220363 32 1126 1126 3.902357956968 3.902357956968 1 974915 974915 974915 950459257225
503	220395 32 1126 1126 3.902357956968 3.902357956968 1 975142 975142 975142 950901920164
504	220427 27 1126 1126 3.902357956968 3.902357956968 1 0 0 0 0
505	220454 30 1126 1126 3.902357956968 3.902357956968 1 1072 1072 1072 1149184
506	220484 36 1126 1126 3.902357956968 3.902357956968 1 4294967295 4294967295 4294967295 1.844674406512e+019
507	220520 27 1126 1126 3.902357956968 3.902357956968 1 0 0 0 0
508	220547 33 1145 1145 3.903233956968 3.903233956968 1 0.00176 0.00176 0.00176 3.0976e-006
509	220580 33 1145 1145 3.903233956968 3.903233956968 1 0.00022 0.00022 0.00022 4.84e-008
510	220613 33 1145 1145 3.903233956968 3.903233956968 1 0.65647 0.65647 0.65647 0.4309528609
511	220646 32 1145 1145 3.903233956968 3.903233956968 1 2.6261 2.6261 2.6261 6.89640121
512	220678 30 1145 1145 3.903233956968 3.903233956968 1 1072 1072 1072 1149184
513	220708 36 1145 1145 3.903233956968 3.903233956968 1 4294967295 4294967295 4294967295 1.844674406512e+019
514	220744 27 1145 1145 3.903233956968 3.903233956968 1 0 0 0 0
515	220771 33 1146 1146 3.903233956968 3.903233956968 1 0.00176 0.00176 0.00176 3.0976e-006
516	220804 33 1146 1146 3.903233956968 3.903233956968 1 0.00022 0.00022 0.00022 4.84e-008
517	220837 33 1146 1146 3.903233956968 3.903233956968 1 0.65647 0.65647 0.65647 0.4309528609
518	220870 32 1146 1146 3.903233956968 3.903233956968 1 2.6261 2.6261 2.6261 6.89640121
519	220902 30 1146 1146 3.903233956968 3.903233956968 1 1072 1072 1072 1149184
520	220932 36 1146 1146 3.903233956968 3.903233956968 1 4294967295 4294967295 4294967295 1.844674406512e+019
521	220968 27 1146 1146 3.903233956968 3.903233956968 1 0 0 0 0
522	220995 54 1487 1530 4.252848667134 4.254664667134 2 0 0 0 0
523	221049 96 1487 1530 4.252848667134 4.254664667134 3 7504 1070944 2149392 2293898412288
524	221145 60 1487 1530 4.252848667134 4.254664667134 2 7504 7504 15008 112620032
525	221205 60 1487 1530 4.252848667134 4.254664667134 2 0 1063440 1063440 1130904633600
526	221265 56 1490 1533 4.252848667134 4.254664667134 2 41 44 85 3617
527	221321 56 1490 1533 4.252848667134 4.254664667134 2 41 44 85 3617
528	221377 108 1490 1533 4.252848667134 4.254664667134 4 0 1 2 2
529	221485 56 1490 1533 4.252848667134 4.254664667134 2 41 44 85 3617
530	221541 54 1490 1533 4.252848667134 4.254664667134 2 0 0 0 0
531	221595 56 1490 1533 4.252848667134 4.254664667134 2 48 51 99 4905
532	221651 54 1500 1536 4.253224667134 4.255040667134 2 0 0 0 0
533	221705 96 1500 1536 4.253224667134 4.255040667134 3 7504 1071038 2149580 2294301104904
534	221801 60 1500 1536 4.253224667134 4.255040667134 2 7504 7504 15008 112620032
535	221861 60 1500 1536 4.253224667134 4.255040667134 2 0 1063534 1063534 1131104569156
536	221921 56 1503 1539 4.253224667134 4.255040667134 2 41 44 85 3617
537	221977 56 1503 1539 4.253224667134 4.255040667134 2 41 44 85 3617
538	222033 108 1503 1539 4.253224667134 4.255040667134 4 0 1 2 2
539	222141 56 1503 1539 4.253224667134 4.255040667134 2 41 44 85 3617
540	222197 54 1503 1539 4.253224667134 4.255040667134 2 0 0 0 0
541	222251 56 1503 1539 4.253224667134 4.255040667134 2 48 51 99 4905
542	222307 56 1513 1546 4.253756667134 4.255548667134 2 48 51 99 4905
543	222363 56 1513 1546 4.253756667134 4.255548667134 2 41 44 85 3617
544	222419 99 1515 1548 4.253756667134 4.255548667134 3 1070717 1070717 3212151 3439304682267
545	222518 60 1515 1548 4.253756667134 4.255548667134 2 7504 7504 15008 112620032
546	222578 81 1515 1548 4.253756667134 4.255548667134 3 0 1 1 1
547	222659 60 1515 1548 4.253756667134 4.255548667134 2 7503 7504 15007 112605025
548	222719 66 1515 1548 4.253756667134 4.255548667134 2 1063213 1063214 2126427 2260845893165
549	222785 56 1517 1552 4.253756667134 4.255548667134 2 40 44 84 3536
550	222841 56 1517 1552 4.253756667134 4.255548667134 2 40 44 84 3536
551	222897 108 1517 1552 4.253756667134 4.255548667134 4 0 1 2 2
552	223005 56 1517 1552 4.253756667134 4.255548667134 2 40 44 84 3536
553	223061 54 1517 1552 4.253756667134 4.255548667134 2 0 0 0 0
554	223115 56 1517 1552 4.253756667134 4.255548667134 2 47 51 98 4810
555	223171 56 1521 1556 4.254132667134 4.255924667134 2 48 51 99 4905
556	223227 56 1521 1556 4.254132667134 4.255924667134 2 41 44 85 3617
557	223283 99 1523 1559 4.254132667134 4.255924667134 3 1070811 1070811 3212433 3439908593163
558	223382 60 1523 1559 4.254132667134 4.255924667134 2 7504 7504 15008 112620032
559	223442 81 1523 1559 4.254132667134 4.255924667134 3 0 1 1 1
560	223523 60 1523 1559 4.254132667134 4.255924667134 2 7503 7504 15007 112605025
561	223583 66 1523 1559 4.254132667134 4.255924667134 2 1063307 1063308 2126615 2261245679113
562	223649 56 1525 1563 4.254132667134 4.255924667134 2 40 44 84 3536
563	223705 56 1525 1563 4.254132667134 4.255924667134 2 40 44 84 3536
564	223761 108 1525 1563 4.254132667134 4.255924667134 4 0 1 2 2
565	223869 56 1525 1563 4.254132667134 4.255924667134 2 40 44 84 3536
566	223925 54 1525 1563 4.254132667134 4.255924667134 2 0 0 0 0
567	223979 56 1525 1563 4.254132667134 4.255924667134 2 47 51 98 4810
568	224035 56 1528 1573 4.254664667134 4.256424667134 2 47 51 98 4810
569	224091 56 1528 1573 4.254664667134 4.256424667134 2 40 44 84 3536
570	224147 66 1530 1575 4.254664667134 4.256424667134 2 1063439 1063440 2126879 2261807140321
571	224213 66 1530 1575 4.254664667134 4.256424667134 2 1063213 1063214 2126427 2260845893165
572	224279 60 1530 1575 4.254664667134 4.256424667134 2 7503 7504 15007 112605025
573	224339 54 1530 1575 4.254664667134 4.256424667134 2 0 1 1 1
574	224393 56 1534 1577 4.255040667134 4.256800667134 2 47 51 98 4810
575	224449 56 1534 1577 4.255040667134 4.256800667134 2 40 44 84 3536
576	224505 66 1536 1579 4.255040667134 4.256800667134 2 1063533 1063534 2127067 2262207011245
577	224571 66 1536 1579 4.255040667134 4.256800667134 2 1063307 1063308 2126615 2261245679113
578	224637 60 1536 1579 4.255040667134 4.256800667134 2 7503 7504 15007 112605025
579	224697 54 1536 1579 4.255040667134 4.256800667134 2 0 1 1 1
580	224751 33 1548 1548 4.255548667134 4.255548667134 1 1063213 1063213 1063213 1130421883369
581	224784 33 1548 1548 4.255548667134 4.255548667134 1 1063440 1063440 1063440 1130904633600
582	224817 27 1548 1548 4.255548667134 4.255548667134 1 0 0 0 0
583	224844 30 1548 1548 4.255548667134 4.255548667134 1 1072 1072 1072 1149184
584	224874 36 1548 1548 4.255548667134 4.255548667134 1 4294967295 4294967295 4294967295 1.844674406512e+019
585	224910 27 1548 1548 4.255548667134 4.255548667134 1 0 0 0 0
586	224937 33 1559 1559 4.255924667134 4.255924667134 1 1063307 1063307 1063307 1130621776249
587	224970 33 1559 1559 4.255924667134 4.255924667134 1 1063534 1063534 1063534 1131104569156
588	225003 27 1559 1559 4.255924667134 4.255924667134 1 0 0 0 0
589	225030 30 1559 1559 4.255924667134 4.255924667134 1 1072 1072 1072 1149184
590	225060 36 1559 1559 4.255924667134 4.255924667134 1 4294967295 4294967295 4294967295 1.844674406512e+019
591	225096 27 1559 1559 4.255924667134 4.255924667134 1 0 0 0 0
592	225123 33 1575 1575 4.256424667134 4.256424667134 1 0.00176 0.00176 0.00176 3.0976e-006
593	225156 33 1575 1575 4.256424667134 4.256424667134 1 0.00022 0.00022 0.00022 4.84e-008
594	225189 33 1575 1575 4.256424667134 4.256424667134 1 0.65647 0.65647 0.65647 0.4309528609
595	225222 32 1575 1575 4.256424667134 4.256424667134 1 2.6261 2.6261 2.6261 6.89640121
596	225254 30 1575 1575 4.256424667134 4.256424667134 1 1072 1072 1072 1149184
597	225284 36 1575 1575 4.256424667134 4.256424667134 1 4294967295 4294967295 4294967295 1.844674406512e+019
598	225320 27 1575 1575 4.256424667134 4.256424667134 1 0 0 0 0
599	225347 33 1579 1579 4.256800667134 4.256800667134 1 0.00176 0.00176 0.00176 3.0976e-006
600	225380 33 1579 1579 4.256800667134 4.256800667134 1 0.00022 0.00022 0.00022 4.84e-008
601	225413 33 1579 1579 4.256800667134 4.256800667134 1 0.65647 0.65647 0.65647 0.4309528609
602	225446 32 1579 1579 4.256800667134 4.256800667134 1 2.6261 2.6261 2.6261 6.89640121
603	225478 30 1579 1579 4.256800667134 4.256800667134 1 1072 1072 1072 1149184
604	225508 36 1579 1579 4.256800667134 4.256800667134 1 4294967295 4294967295 4294967295 1.844674406512e+019
605	225544 27 1579 1579 4.256800667134 4.256800667134 1 0 0 0 0

