version 2
run BROADCAST4-0-20220107-16:43:39-1404
attr configname BROADCAST4
attr datetime 20220107-16:43:39
attr experiment BROADCAST4
attr inifile omnetpp.ini
attr iterationvars ""
attr iterationvarsf ""
attr measurement ""
attr network scenario
attr processid 1404
attr repetition 0
attr replication #0
attr resultdir results
attr runnumber 0
attr seedset 0
param **.client0.app[0].broadcast 1.0
param **.client1.app[0].broadcast 1.4
param **.client2.app[0].broadcast 1.8
param **.client3.app[0].join 1.3
param **.client4.app[0].join 1.6
param **.ppp[*].ppp.queue.typename "\"DropTailQueue\""
param **.tcp.typename "\"Tcp\""
param **.tcp.nagleEnabled false
param **.cli*.app[*].nPar 5
param **.cli*.app[*].fPar 0
param **.numApps 1
param **.client0.app[*].typename "\"Node\""
param **.client0.app[0].localPort 1000
param **.client0.app[0].localPortL 1234
param **.client0.app[0].connectAddress "\"\""
param **.client0.app[0].connectPort 1234
param **.client1.app[*].typename "\"Node\""
param **.client1.app[0].localPort 1001
param **.client1.app[0].localPortL 1234
param **.client1.app[0].connectAddress "\"\""
param **.client1.app[0].connectPort 1234
param **.client2.app[*].typename "\"Node\""
param **.client2.app[0].localPort 1002
param **.client2.app[0].localPortL 1234
param **.client2.app[0].connectAddress "\"\""
param **.client2.app[0].connectPort 1234
param **.client3.app[*].typename "\"Node\""
param **.client3.app[0].localPort 1003
param **.client3.app[0].localPortL 1234
param **.client3.app[0].connectAddress "\"\""
param **.client3.app[0].connectPort 1234
param **.client4.app[*].typename "\"Node\""
param **.client4.app[0].localPort 1004
param **.client4.app[0].localPortL 1234
param **.client4.app[0].connectAddress "\"\""
param **.client4.app[0].connectPort 1234
param *.configurator.dumpAddresses true
param *.configurator.dumpTopology true
param *.configurator.dumpLinks true
param *.configurator.dumpRoutes true

vector 0 scenario.client0.ppp[0].ppp transmissionState:vector ETV
attr interpolationmode sample-hold
attr source transmissionStateChanged
attr title "tx state, vector"
vector 1 scenario.client0.ppp[1].ppp transmissionState:vector ETV
attr interpolationmode sample-hold
attr source transmissionStateChanged
attr title "tx state, vector"
vector 2 scenario.client0.ppp[2].ppp transmissionState:vector ETV
attr interpolationmode sample-hold
attr source transmissionStateChanged
attr title "tx state, vector"
vector 3 scenario.client0.ppp[3].ppp transmissionState:vector ETV
attr interpolationmode sample-hold
attr source transmissionStateChanged
attr title "tx state, vector"
vector 4 scenario.client1.ppp[0].ppp transmissionState:vector ETV
attr interpolationmode sample-hold
attr source transmissionStateChanged
attr title "tx state, vector"
vector 5 scenario.client1.ppp[1].ppp transmissionState:vector ETV
attr interpolationmode sample-hold
attr source transmissionStateChanged
attr title "tx state, vector"
vector 6 scenario.client1.ppp[2].ppp transmissionState:vector ETV
attr interpolationmode sample-hold
attr source transmissionStateChanged
attr title "tx state, vector"
vector 7 scenario.client1.ppp[3].ppp transmissionState:vector ETV
attr interpolationmode sample-hold
attr source transmissionStateChanged
attr title "tx state, vector"
vector 8 scenario.client2.ppp[0].ppp transmissionState:vector ETV
attr interpolationmode sample-hold
attr source transmissionStateChanged
attr title "tx state, vector"
vector 9 scenario.client2.ppp[1].ppp transmissionState:vector ETV
attr interpolationmode sample-hold
attr source transmissionStateChanged
attr title "tx state, vector"
vector 10 scenario.client2.ppp[2].ppp transmissionState:vector ETV
attr interpolationmode sample-hold
attr source transmissionStateChanged
attr title "tx state, vector"
vector 11 scenario.client2.ppp[3].ppp transmissionState:vector ETV
attr interpolationmode sample-hold
attr source transmissionStateChanged
attr title "tx state, vector"
vector 12 scenario.client3.ppp[0].ppp transmissionState:vector ETV
attr interpolationmode sample-hold
attr source transmissionStateChanged
attr title "tx state, vector"
vector 13 scenario.client3.ppp[1].ppp transmissionState:vector ETV
attr interpolationmode sample-hold
attr source transmissionStateChanged
attr title "tx state, vector"
vector 14 scenario.client3.ppp[2].ppp transmissionState:vector ETV
attr interpolationmode sample-hold
attr source transmissionStateChanged
attr title "tx state, vector"
vector 15 scenario.client3.ppp[3].ppp transmissionState:vector ETV
attr interpolationmode sample-hold
attr source transmissionStateChanged
attr title "tx state, vector"
vector 16 scenario.client4.ppp[0].ppp transmissionState:vector ETV
attr interpolationmode sample-hold
attr source transmissionStateChanged
attr title "tx state, vector"
vector 17 scenario.client4.ppp[1].ppp transmissionState:vector ETV
attr interpolationmode sample-hold
attr source transmissionStateChanged
attr title "tx state, vector"
vector 18 scenario.client4.ppp[2].ppp transmissionState:vector ETV
attr interpolationmode sample-hold
attr source transmissionStateChanged
attr title "tx state, vector"
vector 19 scenario.client4.ppp[3].ppp transmissionState:vector ETV
attr interpolationmode sample-hold
attr source transmissionStateChanged
attr title "tx state, vector"
vector 20 scenario.client0.tcp.conn-25 tcpRcvQueueBytes:vector ETV
attr interpolationmode sample-hold
vector 21 scenario.client0.tcp.conn-25 rcvAdv:vector ETV
attr interpolationmode sample-hold
vector 22 scenario.client0.tcp.conn-25 rcvWnd:vector ETV
attr interpolationmode sample-hold
vector 23 scenario.client0.tcp.conn-25 sndAck:vector ETV
attr interpolationmode sample-hold
vector 24 scenario.client0.ppp[0].ppp rcvdPkFromHl:vector(packetBytes) ETV
attr interpolationmode none
attr source packetReceivedFromUpper
attr title "packets received from higher layer, vector(packetBytes)"
vector 25 scenario.client0.ppp[0].ppp.queue packetPushed:vector(packetBytes) ETV
attr interpolationmode none
attr title "packet pushed, vector(packetBytes)"
vector 26 scenario.client0.ppp[0].ppp.queue queueLength:vector ETV
attr interpolationmode sample-hold
attr source "count(packetPushed) - count(packetPopped) - count(packetRemoved) - count(packetDropped)"
attr title "queue length, vector"
vector 27 scenario.client0.ppp[0].ppp.queue packetPopped:vector(packetBytes) ETV
attr interpolationmode none
attr title "packet popped, vector(packetBytes)"
vector 28 scenario.client0.ppp[0].ppp.queue queueingTime:vector ETV
attr interpolationmode none
attr source queueingTime(packetPopped)
attr title "queueing times, vector"
attr unit s
vector 29 scenario.client0.ppp[0].ppp txPk:vector(packetBytes) ETV
attr interpolationmode none
attr source packetSentToLower
attr title "packets transmitted, vector(packetBytes)"
vector 30 scenario.client1.ppp[0].ppp rxPkOk:vector(packetBytes) ETV
attr interpolationmode none
attr source rxPkOk
attr title "packets received OK, vector(packetBytes)"
vector 31 scenario.client1.ppp[0].ppp passedUpPk:vector(packetBytes) ETV
attr interpolationmode none
attr source packetSentToUpper
attr title "packets passed to higher layer, vector(packetBytes)"
vector 32 scenario.client1.tcp.conn-1 rcvSeq:vector ETV
attr interpolationmode sample-hold
vector 33 scenario.client1.tcp.conn-1 rcvAck:vector ETV
attr interpolationmode sample-hold
vector 34 scenario.client1.tcp.conn-26 rcvAdv:vector ETV
attr interpolationmode sample-hold
vector 35 scenario.client1.tcp.conn-26 sndWnd:vector ETV
attr interpolationmode sample-hold
vector 36 scenario.client1.tcp.conn-26 tcpRcvQueueBytes:vector ETV
attr interpolationmode sample-hold
vector 37 scenario.client1.tcp.conn-26 rcvWnd:vector ETV
attr interpolationmode sample-hold
vector 38 scenario.client1.tcp.conn-26 sndAck:vector ETV
attr interpolationmode sample-hold
vector 39 scenario.client1.ppp[0].ppp rcvdPkFromHl:vector(packetBytes) ETV
attr interpolationmode none
attr source packetReceivedFromUpper
attr title "packets received from higher layer, vector(packetBytes)"
vector 40 scenario.client1.ppp[0].ppp.queue packetPushed:vector(packetBytes) ETV
attr interpolationmode none
attr title "packet pushed, vector(packetBytes)"
vector 41 scenario.client1.ppp[0].ppp.queue queueLength:vector ETV
attr interpolationmode sample-hold
attr source "count(packetPushed) - count(packetPopped) - count(packetRemoved) - count(packetDropped)"
attr title "queue length, vector"
vector 42 scenario.client1.ppp[0].ppp.queue packetPopped:vector(packetBytes) ETV
attr interpolationmode none
attr title "packet popped, vector(packetBytes)"
vector 43 scenario.client1.ppp[0].ppp.queue queueingTime:vector ETV
attr interpolationmode none
attr source queueingTime(packetPopped)
attr title "queueing times, vector"
attr unit s
vector 44 scenario.client1.ppp[0].ppp txPk:vector(packetBytes) ETV
attr interpolationmode none
attr source packetSentToLower
attr title "packets transmitted, vector(packetBytes)"
vector 45 scenario.client0.ppp[0].ppp rxPkOk:vector(packetBytes) ETV
attr interpolationmode none
attr source rxPkOk
attr title "packets received OK, vector(packetBytes)"
vector 46 scenario.client0.ppp[0].ppp passedUpPk:vector(packetBytes) ETV
attr interpolationmode none
attr source packetSentToUpper
attr title "packets passed to higher layer, vector(packetBytes)"
vector 47 scenario.client0.tcp.conn-25 rcvSeq:vector ETV
attr interpolationmode sample-hold
vector 48 scenario.client0.tcp.conn-25 rcvAck:vector ETV
attr interpolationmode sample-hold
vector 49 scenario.client0.tcp.conn-25 sndWnd:vector ETV
attr interpolationmode sample-hold
vector 50 scenario.client0.tcp.conn-25 unacked:vector ETV
attr interpolationmode sample-hold
vector 51 scenario.client1.tcp.conn-26 rcvSeq:vector ETV
attr interpolationmode sample-hold
vector 52 scenario.client1.tcp.conn-26 rcvAck:vector ETV
attr interpolationmode sample-hold
vector 53 scenario.client1.tcp.conn-26 unacked:vector ETV
attr interpolationmode sample-hold
vector 54 scenario.client1.tcp.conn-26 cwnd:vector ETV
attr interpolationmode sample-hold
vector 55 scenario.client1.tcp.conn-26 ssthresh:vector ETV
attr interpolationmode sample-hold
vector 56 scenario.client1.tcp.conn-26 dupAcks:vector ETV
attr interpolationmode sample-hold
vector 57 scenario.client0.tcp.conn-25 rtt:vector ETV
attr interpolationmode sample-hold
vector 58 scenario.client0.tcp.conn-25 srtt:vector ETV
attr interpolationmode sample-hold
vector 59 scenario.client0.tcp.conn-25 rttvar:vector ETV
attr interpolationmode sample-hold
vector 60 scenario.client0.tcp.conn-25 rto:vector ETV
attr interpolationmode sample-hold
vector 61 scenario.client0.tcp.conn-25 cwnd:vector ETV
attr interpolationmode sample-hold
vector 62 scenario.client0.tcp.conn-25 ssthresh:vector ETV
attr interpolationmode sample-hold
vector 63 scenario.client0.tcp.conn-25 dupAcks:vector ETV
attr interpolationmode sample-hold
vector 64 scenario.client1.tcp.conn-27 tcpRcvQueueBytes:vector ETV
attr interpolationmode sample-hold
vector 65 scenario.client1.tcp.conn-27 rcvAdv:vector ETV
attr interpolationmode sample-hold
vector 66 scenario.client1.tcp.conn-27 rcvWnd:vector ETV
attr interpolationmode sample-hold
vector 67 scenario.client1.tcp.conn-27 sndAck:vector ETV
attr interpolationmode sample-hold
vector 68 scenario.client0.tcp.conn-0 rcvSeq:vector ETV
attr interpolationmode sample-hold
vector 69 scenario.client0.tcp.conn-0 rcvAck:vector ETV
attr interpolationmode sample-hold
vector 70 scenario.client0.tcp.conn-28 rcvAdv:vector ETV
attr interpolationmode sample-hold
vector 71 scenario.client0.tcp.conn-28 sndWnd:vector ETV
attr interpolationmode sample-hold
vector 72 scenario.client0.tcp.conn-28 tcpRcvQueueBytes:vector ETV
attr interpolationmode sample-hold
vector 73 scenario.client0.tcp.conn-28 rcvWnd:vector ETV
attr interpolationmode sample-hold
vector 74 scenario.client0.tcp.conn-28 sndAck:vector ETV
attr interpolationmode sample-hold
vector 75 scenario.client1.tcp.conn-27 rcvSeq:vector ETV
attr interpolationmode sample-hold
vector 76 scenario.client1.tcp.conn-27 rcvAck:vector ETV
attr interpolationmode sample-hold
vector 77 scenario.client1.tcp.conn-27 sndWnd:vector ETV
attr interpolationmode sample-hold
vector 78 scenario.client1.tcp.conn-27 unacked:vector ETV
attr interpolationmode sample-hold
vector 79 scenario.client0.tcp.conn-28 rcvSeq:vector ETV
attr interpolationmode sample-hold
vector 80 scenario.client0.tcp.conn-28 rcvAck:vector ETV
attr interpolationmode sample-hold
vector 81 scenario.client0.tcp.conn-28 unacked:vector ETV
attr interpolationmode sample-hold
vector 82 scenario.client0.tcp.conn-28 cwnd:vector ETV
attr interpolationmode sample-hold
vector 83 scenario.client0.tcp.conn-28 ssthresh:vector ETV
attr interpolationmode sample-hold
vector 84 scenario.client0.tcp.conn-28 dupAcks:vector ETV
attr interpolationmode sample-hold
vector 85 scenario.client1.tcp.conn-27 rtt:vector ETV
attr interpolationmode sample-hold
vector 86 scenario.client1.tcp.conn-27 srtt:vector ETV
attr interpolationmode sample-hold
vector 87 scenario.client1.tcp.conn-27 rttvar:vector ETV
attr interpolationmode sample-hold
vector 88 scenario.client1.tcp.conn-27 rto:vector ETV
attr interpolationmode sample-hold
vector 89 scenario.client1.tcp.conn-27 cwnd:vector ETV
attr interpolationmode sample-hold
vector 90 scenario.client1.tcp.conn-27 ssthresh:vector ETV
attr interpolationmode sample-hold
vector 91 scenario.client1.tcp.conn-27 dupAcks:vector ETV
attr interpolationmode sample-hold
vector 92 scenario.client0.tcp.conn-29 tcpRcvQueueBytes:vector ETV
attr interpolationmode sample-hold
vector 93 scenario.client0.tcp.conn-29 rcvAdv:vector ETV
attr interpolationmode sample-hold
vector 94 scenario.client0.tcp.conn-29 rcvWnd:vector ETV
attr interpolationmode sample-hold
vector 95 scenario.client0.tcp.conn-29 sndAck:vector ETV
attr interpolationmode sample-hold
vector 96 scenario.client0.ppp[1].ppp rcvdPkFromHl:vector(packetBytes) ETV
attr interpolationmode none
attr source packetReceivedFromUpper
attr title "packets received from higher layer, vector(packetBytes)"
vector 97 scenario.client0.ppp[1].ppp.queue packetPushed:vector(packetBytes) ETV
attr interpolationmode none
attr title "packet pushed, vector(packetBytes)"
vector 98 scenario.client0.ppp[1].ppp.queue queueLength:vector ETV
attr interpolationmode sample-hold
attr source "count(packetPushed) - count(packetPopped) - count(packetRemoved) - count(packetDropped)"
attr title "queue length, vector"
vector 99 scenario.client0.ppp[1].ppp.queue packetPopped:vector(packetBytes) ETV
attr interpolationmode none
attr title "packet popped, vector(packetBytes)"
vector 100 scenario.client0.ppp[1].ppp.queue queueingTime:vector ETV
attr interpolationmode none
attr source queueingTime(packetPopped)
attr title "queueing times, vector"
attr unit s
vector 101 scenario.client0.ppp[1].ppp txPk:vector(packetBytes) ETV
attr interpolationmode none
attr source packetSentToLower
attr title "packets transmitted, vector(packetBytes)"
vector 102 scenario.client2.ppp[0].ppp rxPkOk:vector(packetBytes) ETV
attr interpolationmode none
attr source rxPkOk
attr title "packets received OK, vector(packetBytes)"
vector 103 scenario.client2.ppp[0].ppp passedUpPk:vector(packetBytes) ETV
attr interpolationmode none
attr source packetSentToUpper
attr title "packets passed to higher layer, vector(packetBytes)"
vector 104 scenario.client2.tcp.conn-2 rcvSeq:vector ETV
attr interpolationmode sample-hold
vector 105 scenario.client2.tcp.conn-2 rcvAck:vector ETV
attr interpolationmode sample-hold
vector 106 scenario.client2.tcp.conn-30 rcvAdv:vector ETV
attr interpolationmode sample-hold
vector 107 scenario.client2.tcp.conn-30 sndWnd:vector ETV
attr interpolationmode sample-hold
vector 108 scenario.client2.tcp.conn-30 tcpRcvQueueBytes:vector ETV
attr interpolationmode sample-hold
vector 109 scenario.client2.tcp.conn-30 rcvWnd:vector ETV
attr interpolationmode sample-hold
vector 110 scenario.client2.tcp.conn-30 sndAck:vector ETV
attr interpolationmode sample-hold
vector 111 scenario.client2.ppp[0].ppp rcvdPkFromHl:vector(packetBytes) ETV
attr interpolationmode none
attr source packetReceivedFromUpper
attr title "packets received from higher layer, vector(packetBytes)"
vector 112 scenario.client2.ppp[0].ppp.queue packetPushed:vector(packetBytes) ETV
attr interpolationmode none
attr title "packet pushed, vector(packetBytes)"
vector 113 scenario.client2.ppp[0].ppp.queue queueLength:vector ETV
attr interpolationmode sample-hold
attr source "count(packetPushed) - count(packetPopped) - count(packetRemoved) - count(packetDropped)"
attr title "queue length, vector"
vector 114 scenario.client2.ppp[0].ppp.queue packetPopped:vector(packetBytes) ETV
attr interpolationmode none
attr title "packet popped, vector(packetBytes)"
vector 115 scenario.client2.ppp[0].ppp.queue queueingTime:vector ETV
attr interpolationmode none
attr source queueingTime(packetPopped)
attr title "queueing times, vector"
attr unit s
vector 116 scenario.client2.ppp[0].ppp txPk:vector(packetBytes) ETV
attr interpolationmode none
attr source packetSentToLower
attr title "packets transmitted, vector(packetBytes)"
vector 117 scenario.client0.ppp[1].ppp rxPkOk:vector(packetBytes) ETV
attr interpolationmode none
attr source rxPkOk
attr title "packets received OK, vector(packetBytes)"
vector 118 scenario.client0.ppp[1].ppp passedUpPk:vector(packetBytes) ETV
attr interpolationmode none
attr source packetSentToUpper
attr title "packets passed to higher layer, vector(packetBytes)"
vector 119 scenario.client0.tcp.conn-29 rcvSeq:vector ETV
attr interpolationmode sample-hold
vector 120 scenario.client0.tcp.conn-29 rcvAck:vector ETV
attr interpolationmode sample-hold
vector 121 scenario.client0.tcp.conn-29 sndWnd:vector ETV
attr interpolationmode sample-hold
vector 122 scenario.client0.tcp.conn-29 unacked:vector ETV
attr interpolationmode sample-hold
vector 123 scenario.client2.tcp.conn-30 rcvSeq:vector ETV
attr interpolationmode sample-hold
vector 124 scenario.client2.tcp.conn-30 rcvAck:vector ETV
attr interpolationmode sample-hold
vector 125 scenario.client2.tcp.conn-30 unacked:vector ETV
attr interpolationmode sample-hold
vector 126 scenario.client2.tcp.conn-30 cwnd:vector ETV
attr interpolationmode sample-hold
vector 127 scenario.client2.tcp.conn-30 ssthresh:vector ETV
attr interpolationmode sample-hold
vector 128 scenario.client2.tcp.conn-30 dupAcks:vector ETV
attr interpolationmode sample-hold
vector 129 scenario.client0.tcp.conn-29 rtt:vector ETV
attr interpolationmode sample-hold
vector 130 scenario.client0.tcp.conn-29 srtt:vector ETV
attr interpolationmode sample-hold
vector 131 scenario.client0.tcp.conn-29 rttvar:vector ETV
attr interpolationmode sample-hold
vector 132 scenario.client0.tcp.conn-29 rto:vector ETV
attr interpolationmode sample-hold
vector 133 scenario.client0.tcp.conn-29 cwnd:vector ETV
attr interpolationmode sample-hold
vector 134 scenario.client0.tcp.conn-29 ssthresh:vector ETV
attr interpolationmode sample-hold
vector 135 scenario.client0.tcp.conn-29 dupAcks:vector ETV
attr interpolationmode sample-hold
vector 136 scenario.client2.tcp.conn-31 tcpRcvQueueBytes:vector ETV
attr interpolationmode sample-hold
vector 137 scenario.client2.tcp.conn-31 rcvAdv:vector ETV
attr interpolationmode sample-hold
vector 138 scenario.client2.tcp.conn-31 rcvWnd:vector ETV
attr interpolationmode sample-hold
vector 139 scenario.client2.tcp.conn-31 sndAck:vector ETV
attr interpolationmode sample-hold
vector 140 scenario.client0.tcp.conn-32 rcvAdv:vector ETV
attr interpolationmode sample-hold
vector 141 scenario.client0.tcp.conn-32 sndWnd:vector ETV
attr interpolationmode sample-hold
vector 142 scenario.client0.tcp.conn-32 tcpRcvQueueBytes:vector ETV
attr interpolationmode sample-hold
vector 143 scenario.client0.tcp.conn-32 rcvWnd:vector ETV
attr interpolationmode sample-hold
vector 144 scenario.client0.tcp.conn-32 sndAck:vector ETV
attr interpolationmode sample-hold
vector 145 scenario.client2.tcp.conn-31 rcvSeq:vector ETV
attr interpolationmode sample-hold
vector 146 scenario.client2.tcp.conn-31 rcvAck:vector ETV
attr interpolationmode sample-hold
vector 147 scenario.client2.tcp.conn-31 sndWnd:vector ETV
attr interpolationmode sample-hold
vector 148 scenario.client2.tcp.conn-31 unacked:vector ETV
attr interpolationmode sample-hold
vector 149 scenario.client0.tcp.conn-32 rcvSeq:vector ETV
attr interpolationmode sample-hold
vector 150 scenario.client0.tcp.conn-32 rcvAck:vector ETV
attr interpolationmode sample-hold
vector 151 scenario.client0.tcp.conn-32 unacked:vector ETV
attr interpolationmode sample-hold
vector 152 scenario.client0.tcp.conn-32 cwnd:vector ETV
attr interpolationmode sample-hold
vector 153 scenario.client0.tcp.conn-32 ssthresh:vector ETV
attr interpolationmode sample-hold
vector 154 scenario.client0.tcp.conn-32 dupAcks:vector ETV
attr interpolationmode sample-hold
vector 155 scenario.client2.tcp.conn-31 rtt:vector ETV
attr interpolationmode sample-hold
vector 156 scenario.client2.tcp.conn-31 srtt:vector ETV
attr interpolationmode sample-hold
vector 157 scenario.client2.tcp.conn-31 rttvar:vector ETV
attr interpolationmode sample-hold
vector 158 scenario.client2.tcp.conn-31 rto:vector ETV
attr interpolationmode sample-hold
vector 159 scenario.client2.tcp.conn-31 cwnd:vector ETV
attr interpolationmode sample-hold
vector 160 scenario.client2.tcp.conn-31 ssthresh:vector ETV
attr interpolationmode sample-hold
vector 161 scenario.client2.tcp.conn-31 dupAcks:vector ETV
attr interpolationmode sample-hold
vector 162 scenario.client1.tcp.conn-33 tcpRcvQueueBytes:vector ETV
attr interpolationmode sample-hold
vector 163 scenario.client1.tcp.conn-33 rcvAdv:vector ETV
attr interpolationmode sample-hold
vector 164 scenario.client1.tcp.conn-33 rcvWnd:vector ETV
attr interpolationmode sample-hold
vector 165 scenario.client1.tcp.conn-33 sndAck:vector ETV
attr interpolationmode sample-hold
vector 166 scenario.client1.ppp[1].ppp rcvdPkFromHl:vector(packetBytes) ETV
attr interpolationmode none
attr source packetReceivedFromUpper
attr title "packets received from higher layer, vector(packetBytes)"
vector 167 scenario.client1.ppp[1].ppp.queue packetPushed:vector(packetBytes) ETV
attr interpolationmode none
attr title "packet pushed, vector(packetBytes)"
vector 168 scenario.client1.ppp[1].ppp.queue queueLength:vector ETV
attr interpolationmode sample-hold
attr source "count(packetPushed) - count(packetPopped) - count(packetRemoved) - count(packetDropped)"
attr title "queue length, vector"
vector 169 scenario.client1.ppp[1].ppp.queue packetPopped:vector(packetBytes) ETV
attr interpolationmode none
attr title "packet popped, vector(packetBytes)"
vector 170 scenario.client1.ppp[1].ppp.queue queueingTime:vector ETV
attr interpolationmode none
attr source queueingTime(packetPopped)
attr title "queueing times, vector"
attr unit s
vector 171 scenario.client1.ppp[1].ppp txPk:vector(packetBytes) ETV
attr interpolationmode none
attr source packetSentToLower
attr title "packets transmitted, vector(packetBytes)"
vector 172 scenario.client2.ppp[1].ppp rxPkOk:vector(packetBytes) ETV
attr interpolationmode none
attr source rxPkOk
attr title "packets received OK, vector(packetBytes)"
vector 173 scenario.client2.ppp[1].ppp passedUpPk:vector(packetBytes) ETV
attr interpolationmode none
attr source packetSentToUpper
attr title "packets passed to higher layer, vector(packetBytes)"
vector 174 scenario.client2.tcp.conn-34 rcvAdv:vector ETV
attr interpolationmode sample-hold
vector 175 scenario.client2.tcp.conn-34 sndWnd:vector ETV
attr interpolationmode sample-hold
vector 176 scenario.client2.tcp.conn-34 tcpRcvQueueBytes:vector ETV
attr interpolationmode sample-hold
vector 177 scenario.client2.tcp.conn-34 rcvWnd:vector ETV
attr interpolationmode sample-hold
vector 178 scenario.client2.tcp.conn-34 sndAck:vector ETV
attr interpolationmode sample-hold
vector 179 scenario.client2.ppp[1].ppp rcvdPkFromHl:vector(packetBytes) ETV
attr interpolationmode none
attr source packetReceivedFromUpper
attr title "packets received from higher layer, vector(packetBytes)"
vector 180 scenario.client2.ppp[1].ppp.queue packetPushed:vector(packetBytes) ETV
attr interpolationmode none
attr title "packet pushed, vector(packetBytes)"
vector 181 scenario.client2.ppp[1].ppp.queue queueLength:vector ETV
attr interpolationmode sample-hold
attr source "count(packetPushed) - count(packetPopped) - count(packetRemoved) - count(packetDropped)"
attr title "queue length, vector"
vector 182 scenario.client2.ppp[1].ppp.queue packetPopped:vector(packetBytes) ETV
attr interpolationmode none
attr title "packet popped, vector(packetBytes)"
vector 183 scenario.client2.ppp[1].ppp.queue queueingTime:vector ETV
attr interpolationmode none
attr source queueingTime(packetPopped)
attr title "queueing times, vector"
attr unit s
vector 184 scenario.client2.ppp[1].ppp txPk:vector(packetBytes) ETV
attr interpolationmode none
attr source packetSentToLower
attr title "packets transmitted, vector(packetBytes)"
vector 185 scenario.client1.ppp[1].ppp rxPkOk:vector(packetBytes) ETV
attr interpolationmode none
attr source rxPkOk
attr title "packets received OK, vector(packetBytes)"
vector 186 scenario.client1.ppp[1].ppp passedUpPk:vector(packetBytes) ETV
attr interpolationmode none
attr source packetSentToUpper
attr title "packets passed to higher layer, vector(packetBytes)"
vector 187 scenario.client1.tcp.conn-33 rcvSeq:vector ETV
attr interpolationmode sample-hold
vector 188 scenario.client1.tcp.conn-33 rcvAck:vector ETV
attr interpolationmode sample-hold
vector 189 scenario.client1.tcp.conn-33 sndWnd:vector ETV
attr interpolationmode sample-hold
vector 190 scenario.client1.tcp.conn-33 unacked:vector ETV
attr interpolationmode sample-hold
vector 191 scenario.client2.tcp.conn-34 rcvSeq:vector ETV
attr interpolationmode sample-hold
vector 192 scenario.client2.tcp.conn-34 rcvAck:vector ETV
attr interpolationmode sample-hold
vector 193 scenario.client2.tcp.conn-34 unacked:vector ETV
attr interpolationmode sample-hold
vector 194 scenario.client2.tcp.conn-34 cwnd:vector ETV
attr interpolationmode sample-hold
vector 195 scenario.client2.tcp.conn-34 ssthresh:vector ETV
attr interpolationmode sample-hold
vector 196 scenario.client2.tcp.conn-34 dupAcks:vector ETV
attr interpolationmode sample-hold
vector 197 scenario.client1.tcp.conn-33 rtt:vector ETV
attr interpolationmode sample-hold
vector 198 scenario.client1.tcp.conn-33 srtt:vector ETV
attr interpolationmode sample-hold
vector 199 scenario.client1.tcp.conn-33 rttvar:vector ETV
attr interpolationmode sample-hold
vector 200 scenario.client1.tcp.conn-33 rto:vector ETV
attr interpolationmode sample-hold
vector 201 scenario.client1.tcp.conn-33 cwnd:vector ETV
attr interpolationmode sample-hold
vector 202 scenario.client1.tcp.conn-33 ssthresh:vector ETV
attr interpolationmode sample-hold
vector 203 scenario.client1.tcp.conn-33 dupAcks:vector ETV
attr interpolationmode sample-hold
vector 204 scenario.client4.tcp.conn-35 tcpRcvQueueBytes:vector ETV
attr interpolationmode sample-hold
vector 205 scenario.client4.tcp.conn-35 rcvAdv:vector ETV
attr interpolationmode sample-hold
vector 206 scenario.client4.tcp.conn-35 rcvWnd:vector ETV
attr interpolationmode sample-hold
vector 207 scenario.client4.tcp.conn-35 sndAck:vector ETV
attr interpolationmode sample-hold
vector 208 scenario.client4.ppp[1].ppp rcvdPkFromHl:vector(packetBytes) ETV
attr interpolationmode none
attr source packetReceivedFromUpper
attr title "packets received from higher layer, vector(packetBytes)"
vector 209 scenario.client4.ppp[1].ppp.queue packetPushed:vector(packetBytes) ETV
attr interpolationmode none
attr title "packet pushed, vector(packetBytes)"
vector 210 scenario.client4.ppp[1].ppp.queue queueLength:vector ETV
attr interpolationmode sample-hold
attr source "count(packetPushed) - count(packetPopped) - count(packetRemoved) - count(packetDropped)"
attr title "queue length, vector"
vector 211 scenario.client4.ppp[1].ppp.queue packetPopped:vector(packetBytes) ETV
attr interpolationmode none
attr title "packet popped, vector(packetBytes)"
vector 212 scenario.client4.ppp[1].ppp.queue queueingTime:vector ETV
attr interpolationmode none
attr source queueingTime(packetPopped)
attr title "queueing times, vector"
attr unit s
vector 213 scenario.client4.ppp[1].ppp txPk:vector(packetBytes) ETV
attr interpolationmode none
attr source packetSentToLower
attr title "packets transmitted, vector(packetBytes)"
vector 214 scenario.client1.ppp[3].ppp rxPkOk:vector(packetBytes) ETV
attr interpolationmode none
attr source rxPkOk
attr title "packets received OK, vector(packetBytes)"
vector 215 scenario.client1.ppp[3].ppp passedUpPk:vector(packetBytes) ETV
attr interpolationmode none
attr source packetSentToUpper
attr title "packets passed to higher layer, vector(packetBytes)"
vector 216 scenario.client1.tcp.conn-36 rcvAdv:vector ETV
attr interpolationmode sample-hold
vector 217 scenario.client1.tcp.conn-36 sndWnd:vector ETV
attr interpolationmode sample-hold
vector 218 scenario.client1.tcp.conn-36 tcpRcvQueueBytes:vector ETV
attr interpolationmode sample-hold
vector 219 scenario.client1.tcp.conn-36 rcvWnd:vector ETV
attr interpolationmode sample-hold
vector 220 scenario.client1.tcp.conn-36 sndAck:vector ETV
attr interpolationmode sample-hold
vector 221 scenario.client1.ppp[3].ppp rcvdPkFromHl:vector(packetBytes) ETV
attr interpolationmode none
attr source packetReceivedFromUpper
attr title "packets received from higher layer, vector(packetBytes)"
vector 222 scenario.client1.ppp[3].ppp.queue packetPushed:vector(packetBytes) ETV
attr interpolationmode none
attr title "packet pushed, vector(packetBytes)"
vector 223 scenario.client1.ppp[3].ppp.queue queueLength:vector ETV
attr interpolationmode sample-hold
attr source "count(packetPushed) - count(packetPopped) - count(packetRemoved) - count(packetDropped)"
attr title "queue length, vector"
vector 224 scenario.client1.ppp[3].ppp.queue packetPopped:vector(packetBytes) ETV
attr interpolationmode none
attr title "packet popped, vector(packetBytes)"
vector 225 scenario.client1.ppp[3].ppp.queue queueingTime:vector ETV
attr interpolationmode none
attr source queueingTime(packetPopped)
attr title "queueing times, vector"
attr unit s
vector 226 scenario.client1.ppp[3].ppp txPk:vector(packetBytes) ETV
attr interpolationmode none
attr source packetSentToLower
attr title "packets transmitted, vector(packetBytes)"
vector 227 scenario.client4.ppp[1].ppp rxPkOk:vector(packetBytes) ETV
attr interpolationmode none
attr source rxPkOk
attr title "packets received OK, vector(packetBytes)"
vector 228 scenario.client4.ppp[1].ppp passedUpPk:vector(packetBytes) ETV
attr interpolationmode none
attr source packetSentToUpper
attr title "packets passed to higher layer, vector(packetBytes)"
vector 229 scenario.client4.tcp.conn-35 rcvSeq:vector ETV
attr interpolationmode sample-hold
vector 230 scenario.client4.tcp.conn-35 rcvAck:vector ETV
attr interpolationmode sample-hold
vector 231 scenario.client4.tcp.conn-35 sndWnd:vector ETV
attr interpolationmode sample-hold
vector 232 scenario.client4.tcp.conn-35 unacked:vector ETV
attr interpolationmode sample-hold
vector 233 scenario.client1.tcp.conn-36 rcvSeq:vector ETV
attr interpolationmode sample-hold
vector 234 scenario.client1.tcp.conn-36 rcvAck:vector ETV
attr interpolationmode sample-hold
vector 235 scenario.client1.tcp.conn-36 unacked:vector ETV
attr interpolationmode sample-hold
vector 236 scenario.client1.tcp.conn-36 cwnd:vector ETV
attr interpolationmode sample-hold
vector 237 scenario.client1.tcp.conn-36 ssthresh:vector ETV
attr interpolationmode sample-hold
vector 238 scenario.client1.tcp.conn-36 dupAcks:vector ETV
attr interpolationmode sample-hold
vector 239 scenario.client4.tcp.conn-35 rtt:vector ETV
attr interpolationmode sample-hold
vector 240 scenario.client4.tcp.conn-35 srtt:vector ETV
attr interpolationmode sample-hold
vector 241 scenario.client4.tcp.conn-35 rttvar:vector ETV
attr interpolationmode sample-hold
vector 242 scenario.client4.tcp.conn-35 rto:vector ETV
attr interpolationmode sample-hold
vector 243 scenario.client4.tcp.conn-35 cwnd:vector ETV
attr interpolationmode sample-hold
vector 244 scenario.client4.tcp.conn-35 ssthresh:vector ETV
attr interpolationmode sample-hold
vector 245 scenario.client4.tcp.conn-35 dupAcks:vector ETV
attr interpolationmode sample-hold
vector 246 scenario.client3.tcp.conn-37 tcpRcvQueueBytes:vector ETV
attr interpolationmode sample-hold
vector 247 scenario.client3.tcp.conn-37 rcvAdv:vector ETV
attr interpolationmode sample-hold
vector 248 scenario.client3.tcp.conn-37 rcvWnd:vector ETV
attr interpolationmode sample-hold
vector 249 scenario.client3.tcp.conn-37 sndAck:vector ETV
attr interpolationmode sample-hold
vector 250 scenario.client3.ppp[2].ppp rcvdPkFromHl:vector(packetBytes) ETV
attr interpolationmode none
attr source packetReceivedFromUpper
attr title "packets received from higher layer, vector(packetBytes)"
vector 251 scenario.client3.ppp[2].ppp.queue packetPushed:vector(packetBytes) ETV
attr interpolationmode none
attr title "packet pushed, vector(packetBytes)"
vector 252 scenario.client3.ppp[2].ppp.queue queueLength:vector ETV
attr interpolationmode sample-hold
attr source "count(packetPushed) - count(packetPopped) - count(packetRemoved) - count(packetDropped)"
attr title "queue length, vector"
vector 253 scenario.client3.ppp[2].ppp.queue packetPopped:vector(packetBytes) ETV
attr interpolationmode none
attr title "packet popped, vector(packetBytes)"
vector 254 scenario.client3.ppp[2].ppp.queue queueingTime:vector ETV
attr interpolationmode none
attr source queueingTime(packetPopped)
attr title "queueing times, vector"
attr unit s
vector 255 scenario.client3.ppp[2].ppp txPk:vector(packetBytes) ETV
attr interpolationmode none
attr source packetSentToLower
attr title "packets transmitted, vector(packetBytes)"
vector 256 scenario.client2.ppp[2].ppp rxPkOk:vector(packetBytes) ETV
attr interpolationmode none
attr source rxPkOk
attr title "packets received OK, vector(packetBytes)"
vector 257 scenario.client2.ppp[2].ppp passedUpPk:vector(packetBytes) ETV
attr interpolationmode none
attr source packetSentToUpper
attr title "packets passed to higher layer, vector(packetBytes)"
vector 258 scenario.client2.tcp.conn-38 rcvAdv:vector ETV
attr interpolationmode sample-hold
vector 259 scenario.client2.tcp.conn-38 sndWnd:vector ETV
attr interpolationmode sample-hold
vector 260 scenario.client2.tcp.conn-38 tcpRcvQueueBytes:vector ETV
attr interpolationmode sample-hold
vector 261 scenario.client2.tcp.conn-38 rcvWnd:vector ETV
attr interpolationmode sample-hold
vector 262 scenario.client2.tcp.conn-38 sndAck:vector ETV
attr interpolationmode sample-hold
vector 263 scenario.client2.ppp[2].ppp rcvdPkFromHl:vector(packetBytes) ETV
attr interpolationmode none
attr source packetReceivedFromUpper
attr title "packets received from higher layer, vector(packetBytes)"
vector 264 scenario.client2.ppp[2].ppp.queue packetPushed:vector(packetBytes) ETV
attr interpolationmode none
attr title "packet pushed, vector(packetBytes)"
vector 265 scenario.client2.ppp[2].ppp.queue queueLength:vector ETV
attr interpolationmode sample-hold
attr source "count(packetPushed) - count(packetPopped) - count(packetRemoved) - count(packetDropped)"
attr title "queue length, vector"
vector 266 scenario.client2.ppp[2].ppp.queue packetPopped:vector(packetBytes) ETV
attr interpolationmode none
attr title "packet popped, vector(packetBytes)"
vector 267 scenario.client2.ppp[2].ppp.queue queueingTime:vector ETV
attr interpolationmode none
attr source queueingTime(packetPopped)
attr title "queueing times, vector"
attr unit s
vector 268 scenario.client2.ppp[2].ppp txPk:vector(packetBytes) ETV
attr interpolationmode none
attr source packetSentToLower
attr title "packets transmitted, vector(packetBytes)"
vector 269 scenario.client3.ppp[2].ppp rxPkOk:vector(packetBytes) ETV
attr interpolationmode none
attr source rxPkOk
attr title "packets received OK, vector(packetBytes)"
vector 270 scenario.client3.ppp[2].ppp passedUpPk:vector(packetBytes) ETV
attr interpolationmode none
attr source packetSentToUpper
attr title "packets passed to higher layer, vector(packetBytes)"
vector 271 scenario.client3.tcp.conn-37 rcvSeq:vector ETV
attr interpolationmode sample-hold
vector 272 scenario.client3.tcp.conn-37 rcvAck:vector ETV
attr interpolationmode sample-hold
vector 273 scenario.client3.tcp.conn-37 sndWnd:vector ETV
attr interpolationmode sample-hold
vector 274 scenario.client3.tcp.conn-37 unacked:vector ETV
attr interpolationmode sample-hold
vector 275 scenario.client2.tcp.conn-38 rcvSeq:vector ETV
attr interpolationmode sample-hold
vector 276 scenario.client2.tcp.conn-38 rcvAck:vector ETV
attr interpolationmode sample-hold
vector 277 scenario.client2.tcp.conn-38 unacked:vector ETV
attr interpolationmode sample-hold
vector 278 scenario.client2.tcp.conn-38 cwnd:vector ETV
attr interpolationmode sample-hold
vector 279 scenario.client2.tcp.conn-38 ssthresh:vector ETV
attr interpolationmode sample-hold
vector 280 scenario.client2.tcp.conn-38 dupAcks:vector ETV
attr interpolationmode sample-hold
vector 281 scenario.client3.tcp.conn-37 rtt:vector ETV
attr interpolationmode sample-hold
vector 282 scenario.client3.tcp.conn-37 srtt:vector ETV
attr interpolationmode sample-hold
vector 283 scenario.client3.tcp.conn-37 rttvar:vector ETV
attr interpolationmode sample-hold
vector 284 scenario.client3.tcp.conn-37 rto:vector ETV
attr interpolationmode sample-hold
vector 285 scenario.client3.tcp.conn-37 cwnd:vector ETV
attr interpolationmode sample-hold
vector 286 scenario.client3.tcp.conn-37 ssthresh:vector ETV
attr interpolationmode sample-hold
vector 287 scenario.client3.tcp.conn-37 dupAcks:vector ETV
attr interpolationmode sample-hold
vector 288 scenario.client2.tcp.conn-39 tcpRcvQueueBytes:vector ETV
attr interpolationmode sample-hold
vector 289 scenario.client2.tcp.conn-39 rcvAdv:vector ETV
attr interpolationmode sample-hold
vector 290 scenario.client2.tcp.conn-39 rcvWnd:vector ETV
attr interpolationmode sample-hold
vector 291 scenario.client2.tcp.conn-39 sndAck:vector ETV
attr interpolationmode sample-hold
vector 292 scenario.client1.tcp.conn-40 rcvAdv:vector ETV
attr interpolationmode sample-hold
vector 293 scenario.client1.tcp.conn-40 sndWnd:vector ETV
attr interpolationmode sample-hold
vector 294 scenario.client1.tcp.conn-40 tcpRcvQueueBytes:vector ETV
attr interpolationmode sample-hold
vector 295 scenario.client1.tcp.conn-40 rcvWnd:vector ETV
attr interpolationmode sample-hold
vector 296 scenario.client1.tcp.conn-40 sndAck:vector ETV
attr interpolationmode sample-hold
vector 297 scenario.client2.tcp.conn-39 rcvSeq:vector ETV
attr interpolationmode sample-hold
vector 298 scenario.client2.tcp.conn-39 rcvAck:vector ETV
attr interpolationmode sample-hold
vector 299 scenario.client2.tcp.conn-39 sndWnd:vector ETV
attr interpolationmode sample-hold
vector 300 scenario.client2.tcp.conn-39 unacked:vector ETV
attr interpolationmode sample-hold
vector 301 scenario.client1.tcp.conn-40 rcvSeq:vector ETV
attr interpolationmode sample-hold
vector 302 scenario.client1.tcp.conn-40 rcvAck:vector ETV
attr interpolationmode sample-hold
vector 303 scenario.client1.tcp.conn-40 unacked:vector ETV
attr interpolationmode sample-hold
vector 304 scenario.client1.tcp.conn-40 cwnd:vector ETV
attr interpolationmode sample-hold
vector 305 scenario.client1.tcp.conn-40 ssthresh:vector ETV
attr interpolationmode sample-hold
vector 306 scenario.client1.tcp.conn-40 dupAcks:vector ETV
attr interpolationmode sample-hold
vector 307 scenario.client2.tcp.conn-39 rtt:vector ETV
attr interpolationmode sample-hold
vector 308 scenario.client2.tcp.conn-39 srtt:vector ETV
attr interpolationmode sample-hold
vector 309 scenario.client2.tcp.conn-39 rttvar:vector ETV
attr interpolationmode sample-hold
vector 310 scenario.client2.tcp.conn-39 rto:vector ETV
attr interpolationmode sample-hold
vector 311 scenario.client2.tcp.conn-39 cwnd:vector ETV
attr interpolationmode sample-hold
vector 312 scenario.client2.tcp.conn-39 ssthresh:vector ETV
attr interpolationmode sample-hold
vector 313 scenario.client2.tcp.conn-39 dupAcks:vector ETV
attr interpolationmode sample-hold
vector 314 scenario.client2.tcp.conn-41 tcpRcvQueueBytes:vector ETV
attr interpolationmode sample-hold
vector 315 scenario.client2.tcp.conn-41 rcvAdv:vector ETV
attr interpolationmode sample-hold
vector 316 scenario.client2.tcp.conn-41 rcvWnd:vector ETV
attr interpolationmode sample-hold
vector 317 scenario.client2.tcp.conn-41 sndAck:vector ETV
attr interpolationmode sample-hold
vector 318 scenario.client3.tcp.conn-3 rcvSeq:vector ETV
attr interpolationmode sample-hold
vector 319 scenario.client3.tcp.conn-3 rcvAck:vector ETV
attr interpolationmode sample-hold
vector 320 scenario.client3.tcp.conn-42 rcvAdv:vector ETV
attr interpolationmode sample-hold
vector 321 scenario.client3.tcp.conn-42 sndWnd:vector ETV
attr interpolationmode sample-hold
vector 322 scenario.client3.tcp.conn-42 tcpRcvQueueBytes:vector ETV
attr interpolationmode sample-hold
vector 323 scenario.client3.tcp.conn-42 rcvWnd:vector ETV
attr interpolationmode sample-hold
vector 324 scenario.client3.tcp.conn-42 sndAck:vector ETV
attr interpolationmode sample-hold
vector 325 scenario.client2.tcp.conn-41 rcvSeq:vector ETV
attr interpolationmode sample-hold
vector 326 scenario.client2.tcp.conn-41 rcvAck:vector ETV
attr interpolationmode sample-hold
vector 327 scenario.client2.tcp.conn-41 sndWnd:vector ETV
attr interpolationmode sample-hold
vector 328 scenario.client2.tcp.conn-41 unacked:vector ETV
attr interpolationmode sample-hold
vector 329 scenario.client3.tcp.conn-42 rcvSeq:vector ETV
attr interpolationmode sample-hold
vector 330 scenario.client3.tcp.conn-42 rcvAck:vector ETV
attr interpolationmode sample-hold
vector 331 scenario.client3.tcp.conn-42 unacked:vector ETV
attr interpolationmode sample-hold
vector 332 scenario.client3.tcp.conn-42 cwnd:vector ETV
attr interpolationmode sample-hold
vector 333 scenario.client3.tcp.conn-42 ssthresh:vector ETV
attr interpolationmode sample-hold
vector 334 scenario.client3.tcp.conn-42 dupAcks:vector ETV
attr interpolationmode sample-hold
vector 335 scenario.client2.tcp.conn-41 rtt:vector ETV
attr interpolationmode sample-hold
vector 336 scenario.client2.tcp.conn-41 srtt:vector ETV
attr interpolationmode sample-hold
vector 337 scenario.client2.tcp.conn-41 rttvar:vector ETV
attr interpolationmode sample-hold
vector 338 scenario.client2.tcp.conn-41 rto:vector ETV
attr interpolationmode sample-hold
vector 339 scenario.client2.tcp.conn-41 cwnd:vector ETV
attr interpolationmode sample-hold
vector 340 scenario.client2.tcp.conn-41 ssthresh:vector ETV
attr interpolationmode sample-hold
vector 341 scenario.client2.tcp.conn-41 dupAcks:vector ETV
attr interpolationmode sample-hold
vector 342 scenario.client4.tcp.conn-43 tcpRcvQueueBytes:vector ETV
attr interpolationmode sample-hold
vector 343 scenario.client4.tcp.conn-43 rcvAdv:vector ETV
attr interpolationmode sample-hold
vector 344 scenario.client4.tcp.conn-43 rcvWnd:vector ETV
attr interpolationmode sample-hold
vector 345 scenario.client4.tcp.conn-43 sndAck:vector ETV
attr interpolationmode sample-hold
vector 346 scenario.client4.ppp[2].ppp rcvdPkFromHl:vector(packetBytes) ETV
attr interpolationmode none
attr source packetReceivedFromUpper
attr title "packets received from higher layer, vector(packetBytes)"
vector 347 scenario.client4.ppp[2].ppp.queue packetPushed:vector(packetBytes) ETV
attr interpolationmode none
attr title "packet pushed, vector(packetBytes)"
vector 348 scenario.client4.ppp[2].ppp.queue queueLength:vector ETV
attr interpolationmode sample-hold
attr source "count(packetPushed) - count(packetPopped) - count(packetRemoved) - count(packetDropped)"
attr title "queue length, vector"
vector 349 scenario.client4.ppp[2].ppp.queue packetPopped:vector(packetBytes) ETV
attr interpolationmode none
attr title "packet popped, vector(packetBytes)"
vector 350 scenario.client4.ppp[2].ppp.queue queueingTime:vector ETV
attr interpolationmode none
attr source queueingTime(packetPopped)
attr title "queueing times, vector"
attr unit s
vector 351 scenario.client4.ppp[2].ppp txPk:vector(packetBytes) ETV
attr interpolationmode none
attr source packetSentToLower
attr title "packets transmitted, vector(packetBytes)"
vector 352 scenario.client2.ppp[3].ppp rxPkOk:vector(packetBytes) ETV
attr interpolationmode none
attr source rxPkOk
attr title "packets received OK, vector(packetBytes)"
vector 353 scenario.client2.ppp[3].ppp passedUpPk:vector(packetBytes) ETV
attr interpolationmode none
attr source packetSentToUpper
attr title "packets passed to higher layer, vector(packetBytes)"
vector 354 scenario.client2.tcp.conn-44 rcvAdv:vector ETV
attr interpolationmode sample-hold
vector 355 scenario.client2.tcp.conn-44 sndWnd:vector ETV
attr interpolationmode sample-hold
vector 356 scenario.client2.tcp.conn-44 tcpRcvQueueBytes:vector ETV
attr interpolationmode sample-hold
vector 357 scenario.client2.tcp.conn-44 rcvWnd:vector ETV
attr interpolationmode sample-hold
vector 358 scenario.client2.tcp.conn-44 sndAck:vector ETV
attr interpolationmode sample-hold
vector 359 scenario.client2.ppp[3].ppp rcvdPkFromHl:vector(packetBytes) ETV
attr interpolationmode none
attr source packetReceivedFromUpper
attr title "packets received from higher layer, vector(packetBytes)"
vector 360 scenario.client2.ppp[3].ppp.queue packetPushed:vector(packetBytes) ETV
attr interpolationmode none
attr title "packet pushed, vector(packetBytes)"
vector 361 scenario.client2.ppp[3].ppp.queue queueLength:vector ETV
attr interpolationmode sample-hold
attr source "count(packetPushed) - count(packetPopped) - count(packetRemoved) - count(packetDropped)"
attr title "queue length, vector"
vector 362 scenario.client2.ppp[3].ppp.queue packetPopped:vector(packetBytes) ETV
attr interpolationmode none
attr title "packet popped, vector(packetBytes)"
vector 363 scenario.client2.ppp[3].ppp.queue queueingTime:vector ETV
attr interpolationmode none
attr source queueingTime(packetPopped)
attr title "queueing times, vector"
attr unit s
vector 364 scenario.client2.ppp[3].ppp txPk:vector(packetBytes) ETV
attr interpolationmode none
attr source packetSentToLower
attr title "packets transmitted, vector(packetBytes)"
vector 365 scenario.client4.ppp[2].ppp rxPkOk:vector(packetBytes) ETV
attr interpolationmode none
attr source rxPkOk
attr title "packets received OK, vector(packetBytes)"
vector 366 scenario.client4.ppp[2].ppp passedUpPk:vector(packetBytes) ETV
attr interpolationmode none
attr source packetSentToUpper
attr title "packets passed to higher layer, vector(packetBytes)"
vector 367 scenario.client4.tcp.conn-43 rcvSeq:vector ETV
attr interpolationmode sample-hold
vector 368 scenario.client4.tcp.conn-43 rcvAck:vector ETV
attr interpolationmode sample-hold
vector 369 scenario.client4.tcp.conn-43 sndWnd:vector ETV
attr interpolationmode sample-hold
vector 370 scenario.client4.tcp.conn-43 unacked:vector ETV
attr interpolationmode sample-hold
vector 371 scenario.client2.tcp.conn-44 rcvSeq:vector ETV
attr interpolationmode sample-hold
vector 372 scenario.client2.tcp.conn-44 rcvAck:vector ETV
attr interpolationmode sample-hold
vector 373 scenario.client2.tcp.conn-44 unacked:vector ETV
attr interpolationmode sample-hold
vector 374 scenario.client2.tcp.conn-44 cwnd:vector ETV
attr interpolationmode sample-hold
vector 375 scenario.client2.tcp.conn-44 ssthresh:vector ETV
attr interpolationmode sample-hold
vector 376 scenario.client2.tcp.conn-44 dupAcks:vector ETV
attr interpolationmode sample-hold
vector 377 scenario.client4.tcp.conn-43 rtt:vector ETV
attr interpolationmode sample-hold
vector 378 scenario.client4.tcp.conn-43 srtt:vector ETV
attr interpolationmode sample-hold
vector 379 scenario.client4.tcp.conn-43 rttvar:vector ETV
attr interpolationmode sample-hold
vector 380 scenario.client4.tcp.conn-43 rto:vector ETV
attr interpolationmode sample-hold
vector 381 scenario.client4.tcp.conn-43 cwnd:vector ETV
attr interpolationmode sample-hold
vector 382 scenario.client4.tcp.conn-43 ssthresh:vector ETV
attr interpolationmode sample-hold
vector 383 scenario.client4.tcp.conn-43 dupAcks:vector ETV
attr interpolationmode sample-hold
vector 384 scenario.client3.tcp.conn-45 tcpRcvQueueBytes:vector ETV
attr interpolationmode sample-hold
vector 385 scenario.client3.tcp.conn-45 rcvAdv:vector ETV
attr interpolationmode sample-hold
vector 386 scenario.client3.tcp.conn-45 rcvWnd:vector ETV
attr interpolationmode sample-hold
vector 387 scenario.client3.tcp.conn-45 sndAck:vector ETV
attr interpolationmode sample-hold
vector 388 scenario.client3.ppp[0].ppp rcvdPkFromHl:vector(packetBytes) ETV
attr interpolationmode none
attr source packetReceivedFromUpper
attr title "packets received from higher layer, vector(packetBytes)"
vector 389 scenario.client3.ppp[0].ppp.queue packetPushed:vector(packetBytes) ETV
attr interpolationmode none
attr title "packet pushed, vector(packetBytes)"
vector 390 scenario.client3.ppp[0].ppp.queue queueLength:vector ETV
attr interpolationmode sample-hold
attr source "count(packetPushed) - count(packetPopped) - count(packetRemoved) - count(packetDropped)"
attr title "queue length, vector"
vector 391 scenario.client3.ppp[0].ppp.queue packetPopped:vector(packetBytes) ETV
attr interpolationmode none
attr title "packet popped, vector(packetBytes)"
vector 392 scenario.client3.ppp[0].ppp.queue queueingTime:vector ETV
attr interpolationmode none
attr source queueingTime(packetPopped)
attr title "queueing times, vector"
attr unit s
vector 393 scenario.client3.ppp[0].ppp txPk:vector(packetBytes) ETV
attr interpolationmode none
attr source packetSentToLower
attr title "packets transmitted, vector(packetBytes)"
vector 394 scenario.client0.ppp[2].ppp rxPkOk:vector(packetBytes) ETV
attr interpolationmode none
attr source rxPkOk
attr title "packets received OK, vector(packetBytes)"
vector 395 scenario.client0.ppp[2].ppp passedUpPk:vector(packetBytes) ETV
attr interpolationmode none
attr source packetSentToUpper
attr title "packets passed to higher layer, vector(packetBytes)"
vector 396 scenario.client0.tcp.conn-46 rcvAdv:vector ETV
attr interpolationmode sample-hold
vector 397 scenario.client0.tcp.conn-46 sndWnd:vector ETV
attr interpolationmode sample-hold
vector 398 scenario.client0.tcp.conn-46 tcpRcvQueueBytes:vector ETV
attr interpolationmode sample-hold
vector 399 scenario.client0.tcp.conn-46 rcvWnd:vector ETV
attr interpolationmode sample-hold
vector 400 scenario.client0.tcp.conn-46 sndAck:vector ETV
attr interpolationmode sample-hold
vector 401 scenario.client0.ppp[2].ppp rcvdPkFromHl:vector(packetBytes) ETV
attr interpolationmode none
attr source packetReceivedFromUpper
attr title "packets received from higher layer, vector(packetBytes)"
vector 402 scenario.client0.ppp[2].ppp.queue packetPushed:vector(packetBytes) ETV
attr interpolationmode none
attr title "packet pushed, vector(packetBytes)"
vector 403 scenario.client0.ppp[2].ppp.queue queueLength:vector ETV
attr interpolationmode sample-hold
attr source "count(packetPushed) - count(packetPopped) - count(packetRemoved) - count(packetDropped)"
attr title "queue length, vector"
vector 404 scenario.client0.ppp[2].ppp.queue packetPopped:vector(packetBytes) ETV
attr interpolationmode none
attr title "packet popped, vector(packetBytes)"
vector 405 scenario.client0.ppp[2].ppp.queue queueingTime:vector ETV
attr interpolationmode none
attr source queueingTime(packetPopped)
attr title "queueing times, vector"
attr unit s
vector 406 scenario.client0.ppp[2].ppp txPk:vector(packetBytes) ETV
attr interpolationmode none
attr source packetSentToLower
attr title "packets transmitted, vector(packetBytes)"
vector 407 scenario.client3.ppp[0].ppp rxPkOk:vector(packetBytes) ETV
attr interpolationmode none
attr source rxPkOk
attr title "packets received OK, vector(packetBytes)"
vector 408 scenario.client3.ppp[0].ppp passedUpPk:vector(packetBytes) ETV
attr interpolationmode none
attr source packetSentToUpper
attr title "packets passed to higher layer, vector(packetBytes)"
vector 409 scenario.client3.tcp.conn-45 rcvSeq:vector ETV
attr interpolationmode sample-hold
vector 410 scenario.client3.tcp.conn-45 rcvAck:vector ETV
attr interpolationmode sample-hold
vector 411 scenario.client3.tcp.conn-45 sndWnd:vector ETV
attr interpolationmode sample-hold
vector 412 scenario.client3.tcp.conn-45 unacked:vector ETV
attr interpolationmode sample-hold
vector 413 scenario.client0.tcp.conn-46 rcvSeq:vector ETV
attr interpolationmode sample-hold
vector 414 scenario.client0.tcp.conn-46 rcvAck:vector ETV
attr interpolationmode sample-hold
vector 415 scenario.client0.tcp.conn-46 unacked:vector ETV
attr interpolationmode sample-hold
vector 416 scenario.client0.tcp.conn-46 cwnd:vector ETV
attr interpolationmode sample-hold
vector 417 scenario.client0.tcp.conn-46 ssthresh:vector ETV
attr interpolationmode sample-hold
vector 418 scenario.client0.tcp.conn-46 dupAcks:vector ETV
attr interpolationmode sample-hold
vector 419 scenario.client3.tcp.conn-45 rtt:vector ETV
attr interpolationmode sample-hold
vector 420 scenario.client3.tcp.conn-45 srtt:vector ETV
attr interpolationmode sample-hold
vector 421 scenario.client3.tcp.conn-45 rttvar:vector ETV
attr interpolationmode sample-hold
vector 422 scenario.client3.tcp.conn-45 rto:vector ETV
attr interpolationmode sample-hold
vector 423 scenario.client3.tcp.conn-45 cwnd:vector ETV
attr interpolationmode sample-hold
vector 424 scenario.client3.tcp.conn-45 ssthresh:vector ETV
attr interpolationmode sample-hold
vector 425 scenario.client3.tcp.conn-45 dupAcks:vector ETV
attr interpolationmode sample-hold
vector 426 scenario.client3.tcp.conn-47 tcpRcvQueueBytes:vector ETV
attr interpolationmode sample-hold
vector 427 scenario.client3.tcp.conn-47 rcvAdv:vector ETV
attr interpolationmode sample-hold
vector 428 scenario.client3.tcp.conn-47 rcvWnd:vector ETV
attr interpolationmode sample-hold
vector 429 scenario.client3.tcp.conn-47 sndAck:vector ETV
attr interpolationmode sample-hold
vector 430 scenario.client3.ppp[1].ppp rcvdPkFromHl:vector(packetBytes) ETV
attr interpolationmode none
attr source packetReceivedFromUpper
attr title "packets received from higher layer, vector(packetBytes)"
vector 431 scenario.client3.ppp[1].ppp.queue packetPushed:vector(packetBytes) ETV
attr interpolationmode none
attr title "packet pushed, vector(packetBytes)"
vector 432 scenario.client3.ppp[1].ppp.queue queueLength:vector ETV
attr interpolationmode sample-hold
attr source "count(packetPushed) - count(packetPopped) - count(packetRemoved) - count(packetDropped)"
attr title "queue length, vector"
vector 433 scenario.client3.ppp[1].ppp.queue packetPopped:vector(packetBytes) ETV
attr interpolationmode none
attr title "packet popped, vector(packetBytes)"
vector 434 scenario.client3.ppp[1].ppp.queue queueingTime:vector ETV
attr interpolationmode none
attr source queueingTime(packetPopped)
attr title "queueing times, vector"
attr unit s
vector 435 scenario.client3.ppp[1].ppp txPk:vector(packetBytes) ETV
attr interpolationmode none
attr source packetSentToLower
attr title "packets transmitted, vector(packetBytes)"
vector 436 scenario.client1.ppp[2].ppp rxPkOk:vector(packetBytes) ETV
attr interpolationmode none
attr source rxPkOk
attr title "packets received OK, vector(packetBytes)"
vector 437 scenario.client1.ppp[2].ppp passedUpPk:vector(packetBytes) ETV
attr interpolationmode none
attr source packetSentToUpper
attr title "packets passed to higher layer, vector(packetBytes)"
vector 438 scenario.client1.tcp.conn-48 rcvAdv:vector ETV
attr interpolationmode sample-hold
vector 439 scenario.client1.tcp.conn-48 sndWnd:vector ETV
attr interpolationmode sample-hold
vector 440 scenario.client1.tcp.conn-48 tcpRcvQueueBytes:vector ETV
attr interpolationmode sample-hold
vector 441 scenario.client1.tcp.conn-48 rcvWnd:vector ETV
attr interpolationmode sample-hold
vector 442 scenario.client1.tcp.conn-48 sndAck:vector ETV
attr interpolationmode sample-hold
vector 443 scenario.client1.ppp[2].ppp rcvdPkFromHl:vector(packetBytes) ETV
attr interpolationmode none
attr source packetReceivedFromUpper
attr title "packets received from higher layer, vector(packetBytes)"
vector 444 scenario.client1.ppp[2].ppp.queue packetPushed:vector(packetBytes) ETV
attr interpolationmode none
attr title "packet pushed, vector(packetBytes)"
vector 445 scenario.client1.ppp[2].ppp.queue queueLength:vector ETV
attr interpolationmode sample-hold
attr source "count(packetPushed) - count(packetPopped) - count(packetRemoved) - count(packetDropped)"
attr title "queue length, vector"
vector 446 scenario.client1.ppp[2].ppp.queue packetPopped:vector(packetBytes) ETV
attr interpolationmode none
attr title "packet popped, vector(packetBytes)"
vector 447 scenario.client1.ppp[2].ppp.queue queueingTime:vector ETV
attr interpolationmode none
attr source queueingTime(packetPopped)
attr title "queueing times, vector"
attr unit s
vector 448 scenario.client1.ppp[2].ppp txPk:vector(packetBytes) ETV
attr interpolationmode none
attr source packetSentToLower
attr title "packets transmitted, vector(packetBytes)"
vector 449 scenario.client3.ppp[1].ppp rxPkOk:vector(packetBytes) ETV
attr interpolationmode none
attr source rxPkOk
attr title "packets received OK, vector(packetBytes)"
vector 450 scenario.client3.ppp[1].ppp passedUpPk:vector(packetBytes) ETV
attr interpolationmode none
attr source packetSentToUpper
attr title "packets passed to higher layer, vector(packetBytes)"
vector 451 scenario.client3.tcp.conn-47 rcvSeq:vector ETV
attr interpolationmode sample-hold
vector 452 scenario.client3.tcp.conn-47 rcvAck:vector ETV
attr interpolationmode sample-hold
vector 453 scenario.client3.tcp.conn-47 sndWnd:vector ETV
attr interpolationmode sample-hold
vector 454 scenario.client3.tcp.conn-47 unacked:vector ETV
attr interpolationmode sample-hold
vector 455 scenario.client1.tcp.conn-48 rcvSeq:vector ETV
attr interpolationmode sample-hold
vector 456 scenario.client1.tcp.conn-48 rcvAck:vector ETV
attr interpolationmode sample-hold
vector 457 scenario.client1.tcp.conn-48 unacked:vector ETV
attr interpolationmode sample-hold
vector 458 scenario.client1.tcp.conn-48 cwnd:vector ETV
attr interpolationmode sample-hold
vector 459 scenario.client1.tcp.conn-48 ssthresh:vector ETV
attr interpolationmode sample-hold
vector 460 scenario.client1.tcp.conn-48 dupAcks:vector ETV
attr interpolationmode sample-hold
vector 461 scenario.client3.tcp.conn-47 rtt:vector ETV
attr interpolationmode sample-hold
vector 462 scenario.client3.tcp.conn-47 srtt:vector ETV
attr interpolationmode sample-hold
vector 463 scenario.client3.tcp.conn-47 rttvar:vector ETV
attr interpolationmode sample-hold
vector 464 scenario.client3.tcp.conn-47 rto:vector ETV
attr interpolationmode sample-hold
vector 465 scenario.client3.tcp.conn-47 cwnd:vector ETV
attr interpolationmode sample-hold
vector 466 scenario.client3.tcp.conn-47 ssthresh:vector ETV
attr interpolationmode sample-hold
vector 467 scenario.client3.tcp.conn-47 dupAcks:vector ETV
attr interpolationmode sample-hold
vector 468 scenario.client1.tcp.conn-49 tcpRcvQueueBytes:vector ETV
attr interpolationmode sample-hold
vector 469 scenario.client1.tcp.conn-49 rcvAdv:vector ETV
attr interpolationmode sample-hold
vector 470 scenario.client1.tcp.conn-49 rcvWnd:vector ETV
attr interpolationmode sample-hold
vector 471 scenario.client1.tcp.conn-49 sndAck:vector ETV
attr interpolationmode sample-hold
vector 472 scenario.client4.tcp.conn-4 rcvSeq:vector ETV
attr interpolationmode sample-hold
vector 473 scenario.client4.tcp.conn-4 rcvAck:vector ETV
attr interpolationmode sample-hold
vector 474 scenario.client4.tcp.conn-50 rcvAdv:vector ETV
attr interpolationmode sample-hold
vector 475 scenario.client4.tcp.conn-50 sndWnd:vector ETV
attr interpolationmode sample-hold
vector 476 scenario.client4.tcp.conn-50 tcpRcvQueueBytes:vector ETV
attr interpolationmode sample-hold
vector 477 scenario.client4.tcp.conn-50 rcvWnd:vector ETV
attr interpolationmode sample-hold
vector 478 scenario.client4.tcp.conn-50 sndAck:vector ETV
attr interpolationmode sample-hold
vector 479 scenario.client1.tcp.conn-49 rcvSeq:vector ETV
attr interpolationmode sample-hold
vector 480 scenario.client1.tcp.conn-49 rcvAck:vector ETV
attr interpolationmode sample-hold
vector 481 scenario.client1.tcp.conn-49 sndWnd:vector ETV
attr interpolationmode sample-hold
vector 482 scenario.client1.tcp.conn-49 unacked:vector ETV
attr interpolationmode sample-hold
vector 483 scenario.client4.tcp.conn-50 rcvSeq:vector ETV
attr interpolationmode sample-hold
vector 484 scenario.client4.tcp.conn-50 rcvAck:vector ETV
attr interpolationmode sample-hold
vector 485 scenario.client4.tcp.conn-50 unacked:vector ETV
attr interpolationmode sample-hold
vector 486 scenario.client4.tcp.conn-50 cwnd:vector ETV
attr interpolationmode sample-hold
vector 487 scenario.client4.tcp.conn-50 ssthresh:vector ETV
attr interpolationmode sample-hold
vector 488 scenario.client4.tcp.conn-50 dupAcks:vector ETV
attr interpolationmode sample-hold
vector 489 scenario.client1.tcp.conn-49 rtt:vector ETV
attr interpolationmode sample-hold
vector 490 scenario.client1.tcp.conn-49 srtt:vector ETV
attr interpolationmode sample-hold
vector 491 scenario.client1.tcp.conn-49 rttvar:vector ETV
attr interpolationmode sample-hold
vector 492 scenario.client1.tcp.conn-49 rto:vector ETV
attr interpolationmode sample-hold
vector 493 scenario.client1.tcp.conn-49 cwnd:vector ETV
attr interpolationmode sample-hold
vector 494 scenario.client1.tcp.conn-49 ssthresh:vector ETV
attr interpolationmode sample-hold
vector 495 scenario.client1.tcp.conn-49 dupAcks:vector ETV
attr interpolationmode sample-hold
vector 496 scenario.client0.tcp.conn-51 tcpRcvQueueBytes:vector ETV
attr interpolationmode sample-hold
vector 497 scenario.client0.tcp.conn-51 rcvAdv:vector ETV
attr interpolationmode sample-hold
vector 498 scenario.client0.tcp.conn-51 rcvWnd:vector ETV
attr interpolationmode sample-hold
vector 499 scenario.client0.tcp.conn-51 sndAck:vector ETV
attr interpolationmode sample-hold
vector 500 scenario.client3.tcp.conn-52 rcvAdv:vector ETV
attr interpolationmode sample-hold
vector 501 scenario.client3.tcp.conn-52 sndWnd:vector ETV
attr interpolationmode sample-hold
vector 502 scenario.client3.tcp.conn-52 tcpRcvQueueBytes:vector ETV
attr interpolationmode sample-hold
vector 503 scenario.client3.tcp.conn-52 rcvWnd:vector ETV
attr interpolationmode sample-hold
vector 504 scenario.client3.tcp.conn-52 sndAck:vector ETV
attr interpolationmode sample-hold
vector 505 scenario.client0.tcp.conn-51 rcvSeq:vector ETV
attr interpolationmode sample-hold
vector 506 scenario.client0.tcp.conn-51 rcvAck:vector ETV
attr interpolationmode sample-hold
vector 507 scenario.client0.tcp.conn-51 sndWnd:vector ETV
attr interpolationmode sample-hold
vector 508 scenario.client0.tcp.conn-51 unacked:vector ETV
attr interpolationmode sample-hold
vector 509 scenario.client3.tcp.conn-52 rcvSeq:vector ETV
attr interpolationmode sample-hold
vector 510 scenario.client3.tcp.conn-52 rcvAck:vector ETV
attr interpolationmode sample-hold
vector 511 scenario.client3.tcp.conn-52 unacked:vector ETV
attr interpolationmode sample-hold
vector 512 scenario.client3.tcp.conn-52 cwnd:vector ETV
attr interpolationmode sample-hold
vector 513 scenario.client3.tcp.conn-52 ssthresh:vector ETV
attr interpolationmode sample-hold
vector 514 scenario.client3.tcp.conn-52 dupAcks:vector ETV
attr interpolationmode sample-hold
vector 515 scenario.client0.tcp.conn-51 rtt:vector ETV
attr interpolationmode sample-hold
vector 516 scenario.client0.tcp.conn-51 srtt:vector ETV
attr interpolationmode sample-hold
vector 517 scenario.client0.tcp.conn-51 rttvar:vector ETV
attr interpolationmode sample-hold
vector 518 scenario.client0.tcp.conn-51 rto:vector ETV
attr interpolationmode sample-hold
vector 519 scenario.client0.tcp.conn-51 cwnd:vector ETV
attr interpolationmode sample-hold
vector 520 scenario.client0.tcp.conn-51 ssthresh:vector ETV
attr interpolationmode sample-hold
vector 521 scenario.client0.tcp.conn-51 dupAcks:vector ETV
attr interpolationmode sample-hold
vector 522 scenario.client4.tcp.conn-53 tcpRcvQueueBytes:vector ETV
attr interpolationmode sample-hold
vector 523 scenario.client4.tcp.conn-53 rcvAdv:vector ETV
attr interpolationmode sample-hold
vector 524 scenario.client4.tcp.conn-53 rcvWnd:vector ETV
attr interpolationmode sample-hold
vector 525 scenario.client4.tcp.conn-53 sndAck:vector ETV
attr interpolationmode sample-hold
vector 526 scenario.client4.ppp[0].ppp rcvdPkFromHl:vector(packetBytes) ETV
attr interpolationmode none
attr source packetReceivedFromUpper
attr title "packets received from higher layer, vector(packetBytes)"
vector 527 scenario.client4.ppp[0].ppp.queue packetPushed:vector(packetBytes) ETV
attr interpolationmode none
attr title "packet pushed, vector(packetBytes)"
vector 528 scenario.client4.ppp[0].ppp.queue queueLength:vector ETV
attr interpolationmode sample-hold
attr source "count(packetPushed) - count(packetPopped) - count(packetRemoved) - count(packetDropped)"
attr title "queue length, vector"
vector 529 scenario.client4.ppp[0].ppp.queue packetPopped:vector(packetBytes) ETV
attr interpolationmode none
attr title "packet popped, vector(packetBytes)"
vector 530 scenario.client4.ppp[0].ppp.queue queueingTime:vector ETV
attr interpolationmode none
attr source queueingTime(packetPopped)
attr title "queueing times, vector"
attr unit s
vector 531 scenario.client4.ppp[0].ppp txPk:vector(packetBytes) ETV
attr interpolationmode none
attr source packetSentToLower
attr title "packets transmitted, vector(packetBytes)"
vector 532 scenario.client0.ppp[3].ppp rxPkOk:vector(packetBytes) ETV
attr interpolationmode none
attr source rxPkOk
attr title "packets received OK, vector(packetBytes)"
vector 533 scenario.client0.ppp[3].ppp passedUpPk:vector(packetBytes) ETV
attr interpolationmode none
attr source packetSentToUpper
attr title "packets passed to higher layer, vector(packetBytes)"
vector 534 scenario.client0.tcp.conn-54 rcvAdv:vector ETV
attr interpolationmode sample-hold
vector 535 scenario.client0.tcp.conn-54 sndWnd:vector ETV
attr interpolationmode sample-hold
vector 536 scenario.client0.tcp.conn-54 tcpRcvQueueBytes:vector ETV
attr interpolationmode sample-hold
vector 537 scenario.client0.tcp.conn-54 rcvWnd:vector ETV
attr interpolationmode sample-hold
vector 538 scenario.client0.tcp.conn-54 sndAck:vector ETV
attr interpolationmode sample-hold
vector 539 scenario.client0.ppp[3].ppp rcvdPkFromHl:vector(packetBytes) ETV
attr interpolationmode none
attr source packetReceivedFromUpper
attr title "packets received from higher layer, vector(packetBytes)"
vector 540 scenario.client0.ppp[3].ppp.queue packetPushed:vector(packetBytes) ETV
attr interpolationmode none
attr title "packet pushed, vector(packetBytes)"
vector 541 scenario.client0.ppp[3].ppp.queue queueLength:vector ETV
attr interpolationmode sample-hold
attr source "count(packetPushed) - count(packetPopped) - count(packetRemoved) - count(packetDropped)"
attr title "queue length, vector"
vector 542 scenario.client0.ppp[3].ppp.queue packetPopped:vector(packetBytes) ETV
attr interpolationmode none
attr title "packet popped, vector(packetBytes)"
vector 543 scenario.client0.ppp[3].ppp.queue queueingTime:vector ETV
attr interpolationmode none
attr source queueingTime(packetPopped)
attr title "queueing times, vector"
attr unit s
vector 544 scenario.client0.ppp[3].ppp txPk:vector(packetBytes) ETV
attr interpolationmode none
attr source packetSentToLower
attr title "packets transmitted, vector(packetBytes)"
vector 545 scenario.client4.ppp[0].ppp rxPkOk:vector(packetBytes) ETV
attr interpolationmode none
attr source rxPkOk
attr title "packets received OK, vector(packetBytes)"
vector 546 scenario.client4.ppp[0].ppp passedUpPk:vector(packetBytes) ETV
attr interpolationmode none
attr source packetSentToUpper
attr title "packets passed to higher layer, vector(packetBytes)"
vector 547 scenario.client4.tcp.conn-53 rcvSeq:vector ETV
attr interpolationmode sample-hold
vector 548 scenario.client4.tcp.conn-53 rcvAck:vector ETV
attr interpolationmode sample-hold
vector 549 scenario.client4.tcp.conn-53 sndWnd:vector ETV
attr interpolationmode sample-hold
vector 550 scenario.client4.tcp.conn-53 unacked:vector ETV
attr interpolationmode sample-hold
vector 551 scenario.client0.tcp.conn-54 rcvSeq:vector ETV
attr interpolationmode sample-hold
vector 552 scenario.client0.tcp.conn-54 rcvAck:vector ETV
attr interpolationmode sample-hold
vector 553 scenario.client0.tcp.conn-54 unacked:vector ETV
attr interpolationmode sample-hold
vector 554 scenario.client0.tcp.conn-54 cwnd:vector ETV
attr interpolationmode sample-hold
vector 555 scenario.client0.tcp.conn-54 ssthresh:vector ETV
attr interpolationmode sample-hold
vector 556 scenario.client0.tcp.conn-54 dupAcks:vector ETV
attr interpolationmode sample-hold
vector 557 scenario.client4.tcp.conn-53 rtt:vector ETV
attr interpolationmode sample-hold
vector 558 scenario.client4.tcp.conn-53 srtt:vector ETV
attr interpolationmode sample-hold
vector 559 scenario.client4.tcp.conn-53 rttvar:vector ETV
attr interpolationmode sample-hold
vector 560 scenario.client4.tcp.conn-53 rto:vector ETV
attr interpolationmode sample-hold
vector 561 scenario.client4.tcp.conn-53 cwnd:vector ETV
attr interpolationmode sample-hold
vector 562 scenario.client4.tcp.conn-53 ssthresh:vector ETV
attr interpolationmode sample-hold
vector 563 scenario.client4.tcp.conn-53 dupAcks:vector ETV
attr interpolationmode sample-hold
vector 564 scenario.client0.tcp.conn-55 tcpRcvQueueBytes:vector ETV
attr interpolationmode sample-hold
vector 565 scenario.client0.tcp.conn-55 rcvAdv:vector ETV
attr interpolationmode sample-hold
vector 566 scenario.client0.tcp.conn-55 rcvWnd:vector ETV
attr interpolationmode sample-hold
vector 567 scenario.client0.tcp.conn-55 sndAck:vector ETV
attr interpolationmode sample-hold
vector 568 scenario.client4.tcp.conn-56 rcvAdv:vector ETV
attr interpolationmode sample-hold
vector 569 scenario.client4.tcp.conn-56 sndWnd:vector ETV
attr interpolationmode sample-hold
vector 570 scenario.client4.tcp.conn-56 tcpRcvQueueBytes:vector ETV
attr interpolationmode sample-hold
vector 571 scenario.client4.tcp.conn-56 rcvWnd:vector ETV
attr interpolationmode sample-hold
vector 572 scenario.client4.tcp.conn-56 sndAck:vector ETV
attr interpolationmode sample-hold
vector 573 scenario.client0.tcp.conn-55 rcvSeq:vector ETV
attr interpolationmode sample-hold
vector 574 scenario.client0.tcp.conn-55 rcvAck:vector ETV
attr interpolationmode sample-hold
vector 575 scenario.client0.tcp.conn-55 sndWnd:vector ETV
attr interpolationmode sample-hold
vector 576 scenario.client0.tcp.conn-55 unacked:vector ETV
attr interpolationmode sample-hold
vector 577 scenario.client4.tcp.conn-56 rcvSeq:vector ETV
attr interpolationmode sample-hold
vector 578 scenario.client4.tcp.conn-56 rcvAck:vector ETV
attr interpolationmode sample-hold
vector 579 scenario.client4.tcp.conn-56 unacked:vector ETV
attr interpolationmode sample-hold
vector 580 scenario.client4.tcp.conn-56 cwnd:vector ETV
attr interpolationmode sample-hold
vector 581 scenario.client4.tcp.conn-56 ssthresh:vector ETV
attr interpolationmode sample-hold
vector 582 scenario.client4.tcp.conn-56 dupAcks:vector ETV
attr interpolationmode sample-hold
vector 583 scenario.client0.tcp.conn-55 rtt:vector ETV
attr interpolationmode sample-hold
vector 584 scenario.client0.tcp.conn-55 srtt:vector ETV
attr interpolationmode sample-hold
vector 585 scenario.client0.tcp.conn-55 rttvar:vector ETV
attr interpolationmode sample-hold
vector 586 scenario.client0.tcp.conn-55 rto:vector ETV
attr interpolationmode sample-hold
vector 587 scenario.client0.tcp.conn-55 cwnd:vector ETV
attr interpolationmode sample-hold
vector 588 scenario.client0.tcp.conn-55 ssthresh:vector ETV
attr interpolationmode sample-hold
vector 589 scenario.client0.tcp.conn-55 dupAcks:vector ETV
attr interpolationmode sample-hold
vector 590 scenario.client2.tcp.conn-57 tcpRcvQueueBytes:vector ETV
attr interpolationmode sample-hold
vector 591 scenario.client2.tcp.conn-57 rcvAdv:vector ETV
attr interpolationmode sample-hold
vector 592 scenario.client2.tcp.conn-57 rcvWnd:vector ETV
attr interpolationmode sample-hold
vector 593 scenario.client2.tcp.conn-57 sndAck:vector ETV
attr interpolationmode sample-hold
vector 594 scenario.client4.tcp.conn-58 rcvAdv:vector ETV
attr interpolationmode sample-hold
vector 595 scenario.client4.tcp.conn-58 sndWnd:vector ETV
attr interpolationmode sample-hold
vector 596 scenario.client4.tcp.conn-58 tcpRcvQueueBytes:vector ETV
attr interpolationmode sample-hold
vector 597 scenario.client4.tcp.conn-58 rcvWnd:vector ETV
attr interpolationmode sample-hold
vector 598 scenario.client4.tcp.conn-58 sndAck:vector ETV
attr interpolationmode sample-hold
vector 599 scenario.client2.tcp.conn-57 rcvSeq:vector ETV
attr interpolationmode sample-hold
vector 600 scenario.client2.tcp.conn-57 rcvAck:vector ETV
attr interpolationmode sample-hold
vector 601 scenario.client2.tcp.conn-57 sndWnd:vector ETV
attr interpolationmode sample-hold
vector 602 scenario.client2.tcp.conn-57 unacked:vector ETV
attr interpolationmode sample-hold
vector 603 scenario.client4.tcp.conn-58 rcvSeq:vector ETV
attr interpolationmode sample-hold
vector 604 scenario.client4.tcp.conn-58 rcvAck:vector ETV
attr interpolationmode sample-hold
vector 605 scenario.client4.tcp.conn-58 unacked:vector ETV
attr interpolationmode sample-hold
vector 606 scenario.client4.tcp.conn-58 cwnd:vector ETV
attr interpolationmode sample-hold
vector 607 scenario.client4.tcp.conn-58 ssthresh:vector ETV
attr interpolationmode sample-hold
vector 608 scenario.client4.tcp.conn-58 dupAcks:vector ETV
attr interpolationmode sample-hold
vector 609 scenario.client2.tcp.conn-57 rtt:vector ETV
attr interpolationmode sample-hold
vector 610 scenario.client2.tcp.conn-57 srtt:vector ETV
attr interpolationmode sample-hold
vector 611 scenario.client2.tcp.conn-57 rttvar:vector ETV
attr interpolationmode sample-hold
vector 612 scenario.client2.tcp.conn-57 rto:vector ETV
attr interpolationmode sample-hold
vector 613 scenario.client2.tcp.conn-57 cwnd:vector ETV
attr interpolationmode sample-hold
vector 614 scenario.client2.tcp.conn-57 ssthresh:vector ETV
attr interpolationmode sample-hold
vector 615 scenario.client2.tcp.conn-57 dupAcks:vector ETV
attr interpolationmode sample-hold
vector 616 scenario.client1.tcp.conn-59 tcpRcvQueueBytes:vector ETV
attr interpolationmode sample-hold
vector 617 scenario.client1.tcp.conn-59 rcvAdv:vector ETV
attr interpolationmode sample-hold
vector 618 scenario.client1.tcp.conn-59 rcvWnd:vector ETV
attr interpolationmode sample-hold
vector 619 scenario.client1.tcp.conn-59 sndAck:vector ETV
attr interpolationmode sample-hold
vector 620 scenario.client3.tcp.conn-60 rcvAdv:vector ETV
attr interpolationmode sample-hold
vector 621 scenario.client3.tcp.conn-60 sndWnd:vector ETV
attr interpolationmode sample-hold
vector 622 scenario.client3.tcp.conn-60 tcpRcvQueueBytes:vector ETV
attr interpolationmode sample-hold
vector 623 scenario.client3.tcp.conn-60 rcvWnd:vector ETV
attr interpolationmode sample-hold
vector 624 scenario.client3.tcp.conn-60 sndAck:vector ETV
attr interpolationmode sample-hold
vector 625 scenario.client1.tcp.conn-59 rcvSeq:vector ETV
attr interpolationmode sample-hold
vector 626 scenario.client1.tcp.conn-59 rcvAck:vector ETV
attr interpolationmode sample-hold
vector 627 scenario.client1.tcp.conn-59 sndWnd:vector ETV
attr interpolationmode sample-hold
vector 628 scenario.client1.tcp.conn-59 unacked:vector ETV
attr interpolationmode sample-hold
vector 629 scenario.client3.tcp.conn-60 rcvSeq:vector ETV
attr interpolationmode sample-hold
vector 630 scenario.client3.tcp.conn-60 rcvAck:vector ETV
attr interpolationmode sample-hold
vector 631 scenario.client3.tcp.conn-60 unacked:vector ETV
attr interpolationmode sample-hold
vector 632 scenario.client3.tcp.conn-60 cwnd:vector ETV
attr interpolationmode sample-hold
vector 633 scenario.client3.tcp.conn-60 ssthresh:vector ETV
attr interpolationmode sample-hold
vector 634 scenario.client3.tcp.conn-60 dupAcks:vector ETV
attr interpolationmode sample-hold
vector 635 scenario.client1.tcp.conn-59 rtt:vector ETV
attr interpolationmode sample-hold
vector 636 scenario.client1.tcp.conn-59 srtt:vector ETV
attr interpolationmode sample-hold
vector 637 scenario.client1.tcp.conn-59 rttvar:vector ETV
attr interpolationmode sample-hold
vector 638 scenario.client1.tcp.conn-59 rto:vector ETV
attr interpolationmode sample-hold
vector 639 scenario.client1.tcp.conn-59 cwnd:vector ETV
attr interpolationmode sample-hold
vector 640 scenario.client1.tcp.conn-59 ssthresh:vector ETV
attr interpolationmode sample-hold
vector 641 scenario.client1.tcp.conn-59 dupAcks:vector ETV
attr interpolationmode sample-hold
0	0	0	0
0	11	1.017670216987	1
0	12	1.018078216987	0
0	24	1.019486216987	1
0	25	1.019870216987	0
0	49	1.182171798944	1
0	50	1.182579798944	0
0	64	1.183963798944	1
0	67	1.184339798944	0
0	212	1.788377514817	1
0	213	1.788753514817	0
0	426	2.040796106693	1
0	427	2.041180106693	0
0	456	2.124025446333	1
0	457	2.124409446333	0
0	508	2.231143341044	1
0	509	2.231519341044	0
0	625	2.405953363323	1
0	626	2.406337363323	0
0	833	2.755115630238	1
0	834	2.755491630238	0
0	880	2.820755579821	1
0	881	2.821131579821	0
0	895	2.96235939024	1
0	896	2.96273539024	0
0	903	2.982192391247	1
0	904	2.982576391247	0
0	953	3.064878501419	1
0	954	3.065262501419	0
0	1022	3.134703814325	1
0	1023	3.135079814325	0
0	1060	3.209072057619	1
0	1061	3.209456057619	0
0	1090	3.23083279165	1
0	1091	3.23121679165	0
0	1157	3.300773038117	1
0	1158	3.301149038117	0
0	1165	3.327977534836	1
0	1166	3.328361534836	0
0	1195	3.406689657277	1
0	1196	3.407073657277	0
0	1307	3.604371170385	1
0	1308	3.604747170385	0
0	1330	3.626039312113	1
0	1331	3.626423312113	0
0	1397	3.789660509415	1
0	1398	3.790036509415	0
0	1427	3.815026277291	1
0	1428	3.815402277291	0
0	1450	3.883957339396	1
0	1451	3.884341339396	0
0	1592	4.103414904263	1
0	1593	4.103790904263	0
0	1600	4.162387952147	1
0	1601	4.162771952147	0
0	1622	4.250690090518	1
0	1623	4.251066090518	0
0	1676	4.442958773766	1
0	1677	4.443342773766	0
0	1762	4.473787535264	1
0	1763	4.474171535264	0
0	1799	4.488263559556	1
0	1800	4.488639559556	0
0	1814	4.501923527451	1
0	1815	4.502299527451	0
0	1924	4.722553120029	1
0	1933	4.722929120029	0
0	1933	4.722929120029	1
0	1937	4.723321120029	0
0	2057	5.284314287179	1
0	2061	5.284690287179	0
0	2115	5.484387708853	1
0	2116	5.484771708853	0
1	0	0	0
1	76	1.379039887692	1
1	77	1.379447887692	0
1	89	1.380855887692	1
1	90	1.381239887692	0
1	115	1.544365469405	1
1	116	1.544773469405	0
1	130	1.546157469405	1
1	133	1.546533469405	0
1	228	1.834515397443	1
1	229	1.834891397443	0
1	411	2.00192088992	1
1	412	2.00230488992	0
1	471	2.19286373571	1
1	472	2.19324773571	0
1	493	2.217715196875	1
1	494	2.218091196875	0
1	647	2.413083226539	1
1	648	2.413459226539	0
1	694	2.50803777752	1
1	695	2.50841377752	0
1	766	2.578199830805	1
1	767	2.578583830805	0
1	818	2.743237528977	1
1	819	2.743613528977	0
1	938	3.031968080203	1
1	939	3.032352080203	0
1	1045	3.180750880825	1
1	1046	3.181134880825	0
1	1105	3.257108191534	1
1	1106	3.257492191534	0
1	1127	3.278017698049	1
1	1128	3.278393698049	0
1	1135	3.298516741966	1
1	1136	3.298900741966	0
1	1210	3.466746234199	1
1	1211	3.467130234199	0
1	1262	3.552311660146	1
1	1263	3.552687660146	0
1	1315	3.611194189276	1
1	1316	3.611578189276	0
1	1412	3.80250240083	1
1	1413	3.80287840083	0
1	1472	3.90710062038	1
1	1473	3.90747662038	0
1	1562	4.092819914548	1
1	1563	4.093195914548	0
1	1577	4.099152563738	1
1	1578	4.099528563738	0
1	1637	4.27498489761	1
1	1638	4.27536089761	0
1	1734	4.461230086612	1
1	1738	4.461606086612	0
1	1777	4.481417162633	1
1	1778	4.481801162633	0
1	1822	4.522764676046	1
1	1823	4.523148676046	0
1	1837	4.592591025727	1
1	1838	4.592975025727	0
1	1853	4.606176829371	1
1	1854	4.606560829371	0
[...]
435	990	3.103894873989	51
435	1005	3.105686873989	47
435	1875	4.613479967162	47
435	2058	5.284314287179	47
436	519	2.255618531938	51
436	532	2.257410531938	48
436	992	3.104802873989	51
436	1009	3.106562873989	47
436	1877	4.614355967162	47
436	2071	5.285190287179	47
437	519	2.255618531938	44
437	532	2.257410531938	41
437	992	3.104802873989	44
437	1009	3.106562873989	40
437	1877	4.614355967162	40
437	2071	5.285190287179	40
438	521	2.255618531938	571182
438	521	2.255618531938	571182
438	534	2.257410531938	571182
439	521	2.255618531938	7504
439	534	2.257410531938	7504
440	521	2.255618531938	0
440	534	2.257410531938	0
440	534	2.257410531938	1
441	521	2.255618531938	7504
441	534	2.257410531938	7503
442	521	2.255618531938	563678
442	534	2.257410531938	563679
443	523	2.255618531938	44
443	538	2.257410531938	40
443	984	3.102986873989	44
443	997	3.104802873989	41
443	1868	4.612595967162	41
443	2032	5.283422287179	42
444	523	2.255618531938	44
444	538	2.257410531938	40
444	984	3.102986873989	44
444	997	3.104802873989	41
444	1868	4.612595967162	41
444	2032	5.283422287179	42
445	523	2.255618531938	1
445	523	2.255618531938	0
445	538	2.257410531938	1
445	538	2.257410531938	0
445	984	3.102986873989	1
445	984	3.102986873989	0
445	997	3.104802873989	1
445	997	3.104802873989	0
445	1868	4.612595967162	1
445	1868	4.612595967162	0
445	2032	5.283422287179	1
445	2032	5.283422287179	0
446	523	2.255618531938	44
446	538	2.257410531938	40
446	984	3.102986873989	44
446	997	3.104802873989	41
446	1868	4.612595967162	41
446	2032	5.283422287179	42
447	523	2.255618531938	0
447	538	2.257410531938	0
447	984	3.102986873989	0
447	997	3.104802873989	0
447	1868	4.612595967162	0
447	2032	5.283422287179	0
448	523	2.255618531938	51
448	538	2.257410531938	47
448	984	3.102986873989	51
448	997	3.104802873989	48
448	1868	4.612595967162	48
448	2032	5.283422287179	49
449	525	2.256526531938	51
449	542	2.258286531938	47
449	986	3.103894873989	51
449	999	3.105686873989	48
449	1870	4.613479967162	48
449	2043	5.284314287179	49
450	525	2.256526531938	44
450	542	2.258286531938	40
450	986	3.103894873989	44
450	999	3.105686873989	41
450	1870	4.613479967162	41
450	2043	5.284314287179	42
451	527	2.256526531938	563904
451	544	2.258286531938	563905
452	527	2.256526531938	563678
452	544	2.258286531938	563679
453	527	2.256526531938	7504
453	544	2.258286531938	7503
454	527	2.256526531938	1
454	544	2.258286531938	0
455	534	2.257410531938	563678
456	534	2.257410531938	563905
457	534	2.257410531938	0
458	534	2.257410531938	1072
459	534	2.257410531938	4294967295
460	534	2.257410531938	0
461	544	2.258286531938	0.00176
462	544	2.258286531938	0.00022
463	544	2.258286531938	0.65647
464	544	2.258286531938	2.6261
465	544	2.258286531938	1072
466	544	2.258286531938	4294967295
467	544	2.258286531938	0
468	591	2.397035764642	0
468	604	2.398851764642	0
468	1644	4.346047305399	0
468	2024	5.283422287179	0
469	591	2.397035764642	7504
469	604	2.398851764642	606990
469	604	2.398851764642	606990
469	1644	4.346047305399	606990
469	2024	5.283422287179	606990
470	591	2.397035764642	7504
470	604	2.398851764642	7504
470	1644	4.346047305399	7504
470	2024	5.283422287179	7504
471	591	2.397035764642	0
471	604	2.398851764642	599486
471	1644	4.346047305399	599486
471	2024	5.283422287179	599486
472	598	2.397943764642	599258
472	739	2.574157638356	643312
472	846	2.79465386932	698436
473	598	2.397943764642	0
473	739	2.574157638356	0
473	846	2.79465386932	0
474	598	2.397943764642	606763
474	598	2.397943764642	606763
474	611	2.399735764642	606763
474	1650	4.346931305399	606765
474	2050	5.284314287179	606767
475	598	2.397943764642	7504
475	611	2.399735764642	7504
476	598	2.397943764642	0
476	611	2.399735764642	0
476	611	2.399735764642	1
476	1650	4.346931305399	0
476	1650	4.346931305399	0
476	2050	5.284314287179	0
476	2050	5.284314287179	0
477	598	2.397943764642	7504
477	611	2.399735764642	7503
477	1650	4.346931305399	7504
477	2050	5.284314287179	7504
478	598	2.397943764642	599259
478	611	2.399735764642	599260
478	1650	4.346931305399	599261
478	2050	5.284314287179	599263
479	604	2.398851764642	599485
479	621	2.400611764642	599486
479	1657	4.347807305399	599486
479	2078	5.285190287179	599486
480	604	2.398851764642	599259
480	621	2.400611764642	599260
480	1657	4.347807305399	599261
480	2078	5.285190287179	599263
481	604	2.398851764642	7504
481	621	2.400611764642	7503
481	1657	4.347807305399	7504
481	2078	5.285190287179	7504
482	604	2.398851764642	1
482	621	2.400611764642	0
482	1644	4.346047305399	1
482	1657	4.347807305399	0
482	2024	5.283422287179	2
482	2078	5.285190287179	0
483	611	2.399735764642	599259
483	1650	4.346931305399	599260
483	2050	5.284314287179	599261
484	611	2.399735764642	599486
484	1650	4.346931305399	599486
484	2050	5.284314287179	599486
485	611	2.399735764642	0
486	611	2.399735764642	1072
487	611	2.399735764642	4294967295
488	611	2.399735764642	0
488	1650	4.346931305399	0
488	2050	5.284314287179	0
489	621	2.400611764642	0.00176
489	1657	4.347807305399	0.00176
489	2078	5.285190287179	0.001768
490	621	2.400611764642	0.00022
490	1657	4.347807305399	0.0004125
490	2078	5.285190287179	0.0005819375
491	621	2.400611764642	0.65647
491	1657	4.347807305399	0.57460375
491	2078	5.285190287179	0.50294771875
492	621	2.400611764642	2.6261
492	1657	4.347807305399	2.2988275
492	2078	5.285190287179	2.0123728125
493	621	2.400611764642	1072
493	1657	4.347807305399	1608
493	2078	5.285190287179	2144
494	621	2.400611764642	4294967295
494	1657	4.347807305399	4294967295
494	2078	5.285190287179	4294967295
495	621	2.400611764642	0
495	1657	4.347807305399	0
495	2078	5.285190287179	0
496	653	2.4856279458	0
496	666	2.4874439458	0
496	1922	4.722553120029	0
496	2128	5.486737634082	0
497	653	2.4856279458	7504
497	666	2.4874439458	629138
497	666	2.4874439458	629138
497	1922	4.722553120029	629138
497	2128	5.486737634082	629138
498	653	2.4856279458	7504
498	666	2.4874439458	7504
498	1922	4.722553120029	7504
498	2128	5.486737634082	7504
499	653	2.4856279458	0
499	666	2.4874439458	621634
499	1922	4.722553120029	621634
499	2128	5.486737634082	621634
500	660	2.4865359458	628911
500	660	2.4865359458	628911
500	673	2.4883279458	628911
500	1948	4.723445120029	628914
500	2134	5.487621634082	628915
501	660	2.4865359458	7504
501	673	2.4883279458	7504
502	660	2.4865359458	0
502	673	2.4883279458	0
502	673	2.4883279458	1
502	1948	4.723445120029	0
502	1948	4.723445120029	0
502	2134	5.487621634082	0
502	2134	5.487621634082	0
503	660	2.4865359458	7504
503	673	2.4883279458	7503
503	1948	4.723445120029	7504
503	2134	5.487621634082	7504
504	660	2.4865359458	621407
504	673	2.4883279458	621408
504	1948	4.723445120029	621410
504	2134	5.487621634082	621411
505	666	2.4874439458	621633
505	683	2.4892039458	621634
505	1976	4.724321120029	621634
505	2141	5.488497634082	621634
506	666	2.4874439458	621407
506	683	2.4892039458	621408
506	1976	4.724321120029	621410
506	2141	5.488497634082	621411
507	666	2.4874439458	7504
507	683	2.4892039458	7503
507	1976	4.724321120029	7504
507	2141	5.488497634082	7504
508	666	2.4874439458	1
508	683	2.4892039458	0
508	1922	4.722553120029	2
508	1976	4.724321120029	0
508	2128	5.486737634082	1
508	2141	5.488497634082	0
509	673	2.4883279458	621407
509	1948	4.723445120029	621408
509	2134	5.487621634082	621410
510	673	2.4883279458	621634
510	1948	4.723445120029	621634
510	2134	5.487621634082	621634
511	673	2.4883279458	0
512	673	2.4883279458	1072
513	673	2.4883279458	4294967295
514	673	2.4883279458	0
514	1948	4.723445120029	0
514	2134	5.487621634082	0
515	683	2.4892039458	0.00176
515	1976	4.724321120029	0.001768
515	2141	5.488497634082	0.00176
516	683	2.4892039458	0.00022
516	1976	4.724321120029	0.0004135
516	2141	5.488497634082	0.0005818125
517	683	2.4892039458	0.65647
517	1976	4.724321120029	0.57460475
517	2141	5.488497634082	0.50294746875
518	683	2.4892039458	2.6261
518	1976	4.724321120029	2.2988325
518	2141	5.488497634082	2.0123716875
519	683	2.4892039458	1072
519	1976	4.724321120029	1608
519	2141	5.488497634082	2144
520	683	2.4892039458	4294967295
520	1976	4.724321120029	4294967295
520	2141	5.488497634082	4294967295
521	683	2.4892039458	0
521	1976	4.724321120029	0
521	2141	5.488497634082	0
522	700	2.514090395825	0
522	713	2.515906395825	0
523	700	2.514090395825	7504
523	713	2.515906395825	636254
523	713	2.515906395825	636254
524	700	2.514090395825	7504
524	713	2.515906395825	7504
525	700	2.514090395825	0
525	713	2.515906395825	628750
526	703	2.514090395825	44
526	716	2.515906395825	41
526	741	2.574157638356	44
526	756	2.575949638356	40
526	1958	4.723445120029	40
526	2092	5.324347608386	40
527	703	2.514090395825	44
527	716	2.515906395825	41
527	741	2.574157638356	44
527	756	2.575949638356	40
527	1958	4.723445120029	40
527	2092	5.324347608386	40
528	703	2.514090395825	1
528	703	2.514090395825	0
528	716	2.515906395825	1
528	716	2.515906395825	0
528	741	2.574157638356	1
528	741	2.574157638356	0
528	756	2.575949638356	1
528	756	2.575949638356	0
528	1958	4.723445120029	1
528	1958	4.723445120029	0
528	2092	5.324347608386	1
528	2092	5.324347608386	0
529	703	2.514090395825	44
529	716	2.515906395825	41
529	741	2.574157638356	44
529	756	2.575949638356	40
529	1958	4.723445120029	40
529	2092	5.324347608386	40
530	703	2.514090395825	0
530	716	2.515906395825	0
530	741	2.574157638356	0
530	756	2.575949638356	0
530	1958	4.723445120029	0
530	2092	5.324347608386	0
531	703	2.514090395825	51
531	716	2.515906395825	48
531	741	2.574157638356	51
531	756	2.575949638356	47
531	1958	4.723445120029	47
531	2092	5.324347608386	47
532	705	2.514998395825	51
532	718	2.516790395825	48
532	743	2.575065638356	51
532	760	2.576825638356	47
532	1971	4.724321120029	47
532	2094	5.325223608386	47
533	705	2.514998395825	44
533	718	2.516790395825	41
533	743	2.575065638356	44
533	760	2.576825638356	40
533	1971	4.724321120029	40
533	2094	5.325223608386	40
534	707	2.514998395825	636027
534	707	2.514998395825	636027
534	720	2.516790395825	636027
535	707	2.514998395825	7504
535	720	2.516790395825	7504
536	707	2.514998395825	0
536	720	2.516790395825	0
536	720	2.516790395825	1
537	707	2.514998395825	7504
537	720	2.516790395825	7503
538	707	2.514998395825	628523
538	720	2.516790395825	628524
539	709	2.514998395825	44
539	724	2.516790395825	40
539	735	2.573249638356	44
539	748	2.575065638356	41
539	1932	4.722553120029	42
539	2085	5.323463608386	41
540	709	2.514998395825	44
540	724	2.516790395825	40
540	735	2.573249638356	44
540	748	2.575065638356	41
540	1932	4.722553120029	42
540	2085	5.323463608386	41
541	709	2.514998395825	1
541	709	2.514998395825	0
541	724	2.516790395825	1
541	724	2.516790395825	0
541	735	2.573249638356	1
541	735	2.573249638356	0
541	748	2.575065638356	1
541	748	2.575065638356	0
541	1932	4.722553120029	1
541	1932	4.722553120029	0
541	2085	5.323463608386	1
541	2085	5.323463608386	0
542	709	2.514998395825	44
542	724	2.516790395825	40
542	735	2.573249638356	44
542	748	2.575065638356	41
542	1932	4.722553120029	42
542	2085	5.323463608386	41
543	709	2.514998395825	0
543	724	2.516790395825	0
543	735	2.573249638356	0
543	748	2.575065638356	0
543	1932	4.722553120029	0
543	2085	5.323463608386	0
544	709	2.514998395825	51
544	724	2.516790395825	47
544	735	2.573249638356	51
544	748	2.575065638356	48
544	1932	4.722553120029	49
544	2085	5.323463608386	48
545	711	2.515906395825	51
545	728	2.517666395825	47
545	737	2.574157638356	51
545	750	2.575949638356	48
545	1943	4.723445120029	49
545	2087	5.324347608386	48
546	711	2.515906395825	44
546	728	2.517666395825	40
546	737	2.574157638356	44
546	750	2.575949638356	41
546	1943	4.723445120029	42
546	2087	5.324347608386	41
547	713	2.515906395825	628749
547	730	2.517666395825	628750
548	713	2.515906395825	628523
548	730	2.517666395825	628524
549	713	2.515906395825	7504
549	730	2.517666395825	7503
550	713	2.515906395825	1
550	730	2.517666395825	0
551	720	2.516790395825	628523
552	720	2.516790395825	628750
553	720	2.516790395825	0
554	720	2.516790395825	1072
555	720	2.516790395825	4294967295
556	720	2.516790395825	0
557	730	2.517666395825	0.00176
558	730	2.517666395825	0.00022
559	730	2.517666395825	0.65647
560	730	2.517666395825	2.6261
561	730	2.517666395825	1072
562	730	2.517666395825	4294967295
563	730	2.517666395825	0
564	732	2.573249638356	0
564	745	2.575065638356	0
564	1923	4.722553120029	0
564	2083	5.323463608386	0
565	732	2.573249638356	7504
565	745	2.575065638356	651044
565	745	2.575065638356	651044
565	1923	4.722553120029	651044
565	2083	5.323463608386	651044
566	732	2.573249638356	7504
566	745	2.575065638356	7504
566	1923	4.722553120029	7504
566	2083	5.323463608386	7504
567	732	2.573249638356	0
567	745	2.575065638356	643540
567	1923	4.722553120029	643540
567	2083	5.323463608386	643540
568	739	2.574157638356	650817
568	739	2.574157638356	650817
568	752	2.575949638356	650817
568	1949	4.723445120029	650820
568	2089	5.324347608386	650821
569	739	2.574157638356	7504
569	752	2.575949638356	7504
570	739	2.574157638356	0
570	752	2.575949638356	0
570	752	2.575949638356	1
570	1949	4.723445120029	0
570	1949	4.723445120029	0
570	2089	5.324347608386	0
570	2089	5.324347608386	0
571	739	2.574157638356	7504
571	752	2.575949638356	7503
571	1949	4.723445120029	7504
571	2089	5.324347608386	7504
572	739	2.574157638356	643313
572	752	2.575949638356	643314
572	1949	4.723445120029	643316
572	2089	5.324347608386	643317
573	745	2.575065638356	643539
573	762	2.576825638356	643540
573	1977	4.724321120029	643540
573	2096	5.325223608386	643540
574	745	2.575065638356	643313
574	762	2.576825638356	643314
574	1977	4.724321120029	643316
574	2096	5.325223608386	643317
575	745	2.575065638356	7504
575	762	2.576825638356	7503
575	1977	4.724321120029	7504
575	2096	5.325223608386	7504
576	745	2.575065638356	1
576	762	2.576825638356	0
576	1923	4.722553120029	2
576	1977	4.724321120029	0
576	2083	5.323463608386	1
576	2096	5.325223608386	0
577	752	2.575949638356	643313
577	1949	4.723445120029	643314
577	2089	5.324347608386	643316
578	752	2.575949638356	643540
578	1949	4.723445120029	643540
578	2089	5.324347608386	643540
579	752	2.575949638356	0
580	752	2.575949638356	1072
581	752	2.575949638356	4294967295
582	752	2.575949638356	0
582	1949	4.723445120029	0
582	2089	5.324347608386	0
583	762	2.576825638356	0.00176
583	1977	4.724321120029	0.001768
583	2096	5.325223608386	0.00176
584	762	2.576825638356	0.00022
584	1977	4.724321120029	0.0004135
584	2096	5.325223608386	0.0005818125
585	762	2.576825638356	0.65647
585	1977	4.724321120029	0.57460475
585	2096	5.325223608386	0.50294746875
586	762	2.576825638356	2.6261
586	1977	4.724321120029	2.2988325
586	2096	5.325223608386	2.0123716875
587	762	2.576825638356	1072
587	1977	4.724321120029	1608
587	2096	5.325223608386	2144
588	762	2.576825638356	4294967295
588	1977	4.724321120029	4294967295
588	2096	5.325223608386	4294967295
589	762	2.576825638356	0
589	1977	4.724321120029	0
589	2096	5.325223608386	0
590	839	2.79374586932	0
590	852	2.79556186932	0
590	1701	4.460338086612	0
590	1997	5.26968999469	0
591	839	2.79374586932	7504
591	852	2.79556186932	706168
591	852	2.79556186932	706168
591	1701	4.460338086612	706168
591	1997	5.26968999469	706168
592	839	2.79374586932	7504
592	852	2.79556186932	7504
592	1701	4.460338086612	7504
592	1997	5.26968999469	7504
593	839	2.79374586932	0
593	852	2.79556186932	698664
593	1701	4.460338086612	698664
593	1997	5.26968999469	698664
594	846	2.79465386932	705941
594	846	2.79465386932	705941
594	859	2.79644586932	705941
594	1727	4.461230086612	705944
594	2003	5.27057399469	705945
595	846	2.79465386932	7504
595	859	2.79644586932	7504
596	846	2.79465386932	0
596	859	2.79644586932	0
596	859	2.79644586932	1
596	1727	4.461230086612	0
596	1727	4.461230086612	0
596	2003	5.27057399469	0
596	2003	5.27057399469	0
597	846	2.79465386932	7504
597	859	2.79644586932	7503
597	1727	4.461230086612	7504
597	2003	5.27057399469	7504
598	846	2.79465386932	698437
598	859	2.79644586932	698438
598	1727	4.461230086612	698440
598	2003	5.27057399469	698441
599	852	2.79556186932	698663
599	869	2.79732186932	698664
599	1755	4.462106086612	698664
599	2010	5.27144999469	698664
600	852	2.79556186932	698437
600	869	2.79732186932	698438
600	1755	4.462106086612	698440
600	2010	5.27144999469	698441
601	852	2.79556186932	7504
601	869	2.79732186932	7503
601	1755	4.462106086612	7504
601	2010	5.27144999469	7504
602	852	2.79556186932	1
602	869	2.79732186932	0
602	1701	4.460338086612	2
602	1755	4.462106086612	0
602	1997	5.26968999469	1
602	2010	5.27144999469	0
603	859	2.79644586932	698437
603	1727	4.461230086612	698438
603	2003	5.27057399469	698440
604	859	2.79644586932	698664
604	1727	4.461230086612	698664
604	2003	5.27057399469	698664
605	859	2.79644586932	0
606	859	2.79644586932	1072
607	859	2.79644586932	4294967295
608	859	2.79644586932	0
608	1727	4.461230086612	0
608	2003	5.27057399469	0
609	869	2.79732186932	0.00176
609	1755	4.462106086612	0.001768
609	2010	5.27144999469	0.00176
610	869	2.79732186932	0.00022
610	1755	4.462106086612	0.0004135
610	2010	5.27144999469	0.0005818125
611	869	2.79732186932	0.65647
611	1755	4.462106086612	0.57460475
611	2010	5.27144999469	0.50294746875
612	869	2.79732186932	2.6261
612	1755	4.462106086612	2.2988325
612	2010	5.27144999469	2.0123716875
613	869	2.79732186932	1072
613	1755	4.462106086612	1608
613	2010	5.27144999469	2144
614	869	2.79732186932	4294967295
614	1755	4.462106086612	4294967295
614	2010	5.27144999469	4294967295
615	869	2.79732186932	0
615	1755	4.462106086612	0
615	2010	5.27144999469	0
616	981	3.102986873989	0
616	994	3.104802873989	0
616	1866	4.612595967162	0
616	2023	5.283422287179	0
617	981	3.102986873989	7504
617	994	3.104802873989	783478
617	994	3.104802873989	783478
617	1866	4.612595967162	783478
617	2023	5.283422287179	783478
618	981	3.102986873989	7504
618	994	3.104802873989	7504
618	1866	4.612595967162	7504
618	2023	5.283422287179	7504
619	981	3.102986873989	0
619	994	3.104802873989	775974
619	1866	4.612595967162	775974
619	2023	5.283422287179	775974
620	988	3.103894873989	783251
620	988	3.103894873989	783251
620	1001	3.105686873989	783251
620	1872	4.613479967162	783253
620	2049	5.284314287179	783255
621	988	3.103894873989	7504
621	1001	3.105686873989	7504
622	988	3.103894873989	0
622	1001	3.105686873989	0
622	1001	3.105686873989	1
622	1872	4.613479967162	0
622	1872	4.613479967162	0
622	2049	5.284314287179	0
622	2049	5.284314287179	0
623	988	3.103894873989	7504
623	1001	3.105686873989	7503
623	1872	4.613479967162	7504
623	2049	5.284314287179	7504
624	988	3.103894873989	775747
624	1001	3.105686873989	775748
624	1872	4.613479967162	775749
624	2049	5.284314287179	775751
625	994	3.104802873989	775973
625	1011	3.106562873989	775974
625	1879	4.614355967162	775974
625	2077	5.285190287179	775974
626	994	3.104802873989	775747
626	1011	3.106562873989	775748
626	1879	4.614355967162	775749
626	2077	5.285190287179	775751
627	994	3.104802873989	7504
627	1011	3.106562873989	7503
627	1879	4.614355967162	7504
627	2077	5.285190287179	7504
628	994	3.104802873989	1
628	1011	3.106562873989	0
628	1866	4.612595967162	1
628	1879	4.614355967162	0
628	2023	5.283422287179	2
628	2077	5.285190287179	0
629	1001	3.105686873989	775747
629	1872	4.613479967162	775748
629	2049	5.284314287179	775749
630	1001	3.105686873989	775974
630	1872	4.613479967162	775974
630	2049	5.284314287179	775974
631	1001	3.105686873989	0
632	1001	3.105686873989	1072
633	1001	3.105686873989	4294967295
634	1001	3.105686873989	0
634	1872	4.613479967162	0
634	2049	5.284314287179	0
635	1011	3.106562873989	0.00176
635	1879	4.614355967162	0.00176
635	2077	5.285190287179	0.001768
636	1011	3.106562873989	0.00022
636	1879	4.614355967162	0.0004125
636	2077	5.285190287179	0.0005819375
637	1011	3.106562873989	0.65647
637	1879	4.614355967162	0.57460375
637	2077	5.285190287179	0.50294771875
638	1011	3.106562873989	2.6261
638	1879	4.614355967162	2.2988275
638	2077	5.285190287179	2.0123728125
639	1011	3.106562873989	1072
639	1879	4.614355967162	1608
639	2077	5.285190287179	2144
640	1011	3.106562873989	4294967295
640	1879	4.614355967162	4294967295
640	2077	5.285190287179	4294967295
641	1011	3.106562873989	0
641	1879	4.614355967162	0
641	2077	5.285190287179	0

