version 2
run BROADCAST-0-20220106-10:43:56-7828
attr configname BROADCAST
attr datetime 20220106-10:43:56
attr experiment BROADCAST
attr inifile omnetpp.ini
attr iterationvars ""
attr iterationvarsf ""
attr measurement ""
attr network scenario
attr processid 7828
attr repetition 0
attr replication #0
attr resultdir results
attr runnumber 0
attr seedset 0
param **.client1.app[0].broadcast 0.0
param **.client2.app[0].broadcast 2.0
param **.client3.app[0].broadcast 0.0
param **.client3.app[0].join 3.0
param **.client4.app[0].join 5.0
param **.ppp[*].ppp.queue.typename "\"DropTailQueue\""
param **.tcp.typename "\"Tcp\""
param **.tcp.nagleEnabled false
param **.cli*.app[*].nPar 5
param **.cli*.app[*].fPar 0
param **.numApps 1
param **.client0.app[*].typename "\"Node\""
param **.client0.app[0].localPort 1000
param **.client0.app[0].localPortL 1234
param **.client0.app[0].connectAddress "\"\""
param **.client0.app[0].connectPort 1234
param **.client1.app[*].typename "\"Node\""
param **.client1.app[0].localPort 1001
param **.client1.app[0].localPortL 1234
param **.client1.app[0].connectAddress "\"\""
param **.client1.app[0].connectPort 1234
param **.client2.app[*].typename "\"Node\""
param **.client2.app[0].localPort 1002
param **.client2.app[0].localPortL 1234
param **.client2.app[0].connectAddress "\"\""
param **.client2.app[0].connectPort 1234
param **.client3.app[*].typename "\"Node\""
param **.client3.app[0].localPort 1003
param **.client3.app[0].localPortL 1234
param **.client3.app[0].connectAddress "\"\""
param **.client3.app[0].connectPort 1234
param **.client4.app[*].typename "\"Node\""
param **.client4.app[0].localPort 1004
param **.client4.app[0].localPortL 1234
param **.client4.app[0].connectAddress "\"\""
param **.client4.app[0].connectPort 1234
param *.configurator.dumpAddresses true
param *.configurator.dumpTopology true
param *.configurator.dumpLinks true
param *.configurator.dumpRoutes true

vector 0 scenario.client0.ppp[0].ppp transmissionState:vector ETV
attr interpolationmode sample-hold
attr source transmissionStateChanged
attr title "tx state, vector"
vector 1 scenario.client0.ppp[1].ppp transmissionState:vector ETV
attr interpolationmode sample-hold
attr source transmissionStateChanged
attr title "tx state, vector"
vector 2 scenario.client0.ppp[2].ppp transmissionState:vector ETV
attr interpolationmode sample-hold
attr source transmissionStateChanged
attr title "tx state, vector"
vector 3 scenario.client0.ppp[3].ppp transmissionState:vector ETV
attr interpolationmode sample-hold
attr source transmissionStateChanged
attr title "tx state, vector"
vector 4 scenario.client1.ppp[0].ppp transmissionState:vector ETV
attr interpolationmode sample-hold
attr source transmissionStateChanged
attr title "tx state, vector"
vector 5 scenario.client1.ppp[1].ppp transmissionState:vector ETV
attr interpolationmode sample-hold
attr source transmissionStateChanged
attr title "tx state, vector"
vector 6 scenario.client1.ppp[2].ppp transmissionState:vector ETV
attr interpolationmode sample-hold
attr source transmissionStateChanged
attr title "tx state, vector"
vector 7 scenario.client1.ppp[3].ppp transmissionState:vector ETV
attr interpolationmode sample-hold
attr source transmissionStateChanged
attr title "tx state, vector"
vector 8 scenario.client2.ppp[0].ppp transmissionState:vector ETV
attr interpolationmode sample-hold
attr source transmissionStateChanged
attr title "tx state, vector"
vector 9 scenario.client2.ppp[1].ppp transmissionState:vector ETV
attr interpolationmode sample-hold
attr source transmissionStateChanged
attr title "tx state, vector"
vector 10 scenario.client2.ppp[2].ppp transmissionState:vector ETV
attr interpolationmode sample-hold
attr source transmissionStateChanged
attr title "tx state, vector"
vector 11 scenario.client2.ppp[3].ppp transmissionState:vector ETV
attr interpolationmode sample-hold
attr source transmissionStateChanged
attr title "tx state, vector"
vector 12 scenario.client3.ppp[0].ppp transmissionState:vector ETV
attr interpolationmode sample-hold
attr source transmissionStateChanged
attr title "tx state, vector"
vector 13 scenario.client3.ppp[1].ppp transmissionState:vector ETV
attr interpolationmode sample-hold
attr source transmissionStateChanged
attr title "tx state, vector"
vector 14 scenario.client3.ppp[2].ppp transmissionState:vector ETV
attr interpolationmode sample-hold
attr source transmissionStateChanged
attr title "tx state, vector"
vector 15 scenario.client3.ppp[3].ppp transmissionState:vector ETV
attr interpolationmode sample-hold
attr source transmissionStateChanged
attr title "tx state, vector"
vector 16 scenario.client4.ppp[0].ppp transmissionState:vector ETV
attr interpolationmode sample-hold
attr source transmissionStateChanged
attr title "tx state, vector"
vector 17 scenario.client4.ppp[1].ppp transmissionState:vector ETV
attr interpolationmode sample-hold
attr source transmissionStateChanged
attr title "tx state, vector"
vector 18 scenario.client4.ppp[2].ppp transmissionState:vector ETV
attr interpolationmode sample-hold
attr source transmissionStateChanged
attr title "tx state, vector"
vector 19 scenario.client4.ppp[3].ppp transmissionState:vector ETV
attr interpolationmode sample-hold
attr source transmissionStateChanged
attr title "tx state, vector"
vector 20 scenario.client1.tcp.conn-25 tcpRcvQueueBytes:vector ETV
attr interpolationmode sample-hold
vector 21 scenario.client1.tcp.conn-25 rcvAdv:vector ETV
attr interpolationmode sample-hold
vector 22 scenario.client1.tcp.conn-25 rcvWnd:vector ETV
attr interpolationmode sample-hold
vector 23 scenario.client1.tcp.conn-25 sndAck:vector ETV
attr interpolationmode sample-hold
vector 24 scenario.client1.ppp[0].ppp rcvdPkFromHl:vector(packetBytes) ETV
attr interpolationmode none
attr source packetReceivedFromUpper
attr title "packets received from higher layer, vector(packetBytes)"
vector 25 scenario.client1.ppp[0].ppp.queue packetPushed:vector(packetBytes) ETV
attr interpolationmode none
attr title "packet pushed, vector(packetBytes)"
vector 26 scenario.client1.ppp[0].ppp.queue queueLength:vector ETV
attr interpolationmode sample-hold
attr source "count(packetPushed) - count(packetPopped) - count(packetRemoved) - count(packetDropped)"
attr title "queue length, vector"
vector 27 scenario.client1.ppp[0].ppp.queue packetPopped:vector(packetBytes) ETV
attr interpolationmode none
attr title "packet popped, vector(packetBytes)"
vector 28 scenario.client1.ppp[0].ppp.queue queueingTime:vector ETV
attr interpolationmode none
attr source queueingTime(packetPopped)
attr title "queueing times, vector"
attr unit s
vector 29 scenario.client1.ppp[0].ppp txPk:vector(packetBytes) ETV
attr interpolationmode none
attr source packetSentToLower
attr title "packets transmitted, vector(packetBytes)"
vector 30 scenario.client0.ppp[0].ppp rxPkOk:vector(packetBytes) ETV
attr interpolationmode none
attr source rxPkOk
attr title "packets received OK, vector(packetBytes)"
vector 31 scenario.client0.ppp[0].ppp passedUpPk:vector(packetBytes) ETV
attr interpolationmode none
attr source packetSentToUpper
attr title "packets passed to higher layer, vector(packetBytes)"
vector 32 scenario.client0.tcp.conn-0 rcvSeq:vector ETV
attr interpolationmode sample-hold
vector 33 scenario.client0.tcp.conn-0 rcvAck:vector ETV
attr interpolationmode sample-hold
vector 34 scenario.client0.tcp.conn-26 rcvAdv:vector ETV
attr interpolationmode sample-hold
vector 35 scenario.client0.tcp.conn-26 sndWnd:vector ETV
attr interpolationmode sample-hold
vector 36 scenario.client0.tcp.conn-26 tcpRcvQueueBytes:vector ETV
attr interpolationmode sample-hold
vector 37 scenario.client0.tcp.conn-26 rcvWnd:vector ETV
attr interpolationmode sample-hold
vector 38 scenario.client0.tcp.conn-26 sndAck:vector ETV
attr interpolationmode sample-hold
vector 39 scenario.client0.ppp[0].ppp rcvdPkFromHl:vector(packetBytes) ETV
attr interpolationmode none
attr source packetReceivedFromUpper
attr title "packets received from higher layer, vector(packetBytes)"
vector 40 scenario.client0.ppp[0].ppp.queue packetPushed:vector(packetBytes) ETV
attr interpolationmode none
attr title "packet pushed, vector(packetBytes)"
vector 41 scenario.client0.ppp[0].ppp.queue queueLength:vector ETV
attr interpolationmode sample-hold
attr source "count(packetPushed) - count(packetPopped) - count(packetRemoved) - count(packetDropped)"
attr title "queue length, vector"
vector 42 scenario.client0.ppp[0].ppp.queue packetPopped:vector(packetBytes) ETV
attr interpolationmode none
attr title "packet popped, vector(packetBytes)"
vector 43 scenario.client0.ppp[0].ppp.queue queueingTime:vector ETV
attr interpolationmode none
attr source queueingTime(packetPopped)
attr title "queueing times, vector"
attr unit s
vector 44 scenario.client0.ppp[0].ppp txPk:vector(packetBytes) ETV
attr interpolationmode none
attr source packetSentToLower
attr title "packets transmitted, vector(packetBytes)"
vector 45 scenario.client1.ppp[0].ppp rxPkOk:vector(packetBytes) ETV
attr interpolationmode none
attr source rxPkOk
attr title "packets received OK, vector(packetBytes)"
vector 46 scenario.client1.ppp[0].ppp passedUpPk:vector(packetBytes) ETV
attr interpolationmode none
attr source packetSentToUpper
attr title "packets passed to higher layer, vector(packetBytes)"
vector 47 scenario.client1.tcp.conn-25 rcvSeq:vector ETV
attr interpolationmode sample-hold
vector 48 scenario.client1.tcp.conn-25 rcvAck:vector ETV
attr interpolationmode sample-hold
vector 49 scenario.client1.tcp.conn-25 sndWnd:vector ETV
attr interpolationmode sample-hold
vector 50 scenario.client1.tcp.conn-25 unacked:vector ETV
attr interpolationmode sample-hold
vector 51 scenario.client0.tcp.conn-26 rcvSeq:vector ETV
attr interpolationmode sample-hold
vector 52 scenario.client0.tcp.conn-26 rcvAck:vector ETV
attr interpolationmode sample-hold
vector 53 scenario.client0.tcp.conn-26 unacked:vector ETV
attr interpolationmode sample-hold
vector 54 scenario.client0.tcp.conn-26 cwnd:vector ETV
attr interpolationmode sample-hold
vector 55 scenario.client0.tcp.conn-26 ssthresh:vector ETV
attr interpolationmode sample-hold
vector 56 scenario.client0.tcp.conn-26 dupAcks:vector ETV
attr interpolationmode sample-hold
vector 57 scenario.client1.tcp.conn-25 rtt:vector ETV
attr interpolationmode sample-hold
vector 58 scenario.client1.tcp.conn-25 srtt:vector ETV
attr interpolationmode sample-hold
vector 59 scenario.client1.tcp.conn-25 rttvar:vector ETV
attr interpolationmode sample-hold
vector 60 scenario.client1.tcp.conn-25 rto:vector ETV
attr interpolationmode sample-hold
vector 61 scenario.client1.tcp.conn-25 cwnd:vector ETV
attr interpolationmode sample-hold
vector 62 scenario.client1.tcp.conn-25 ssthresh:vector ETV
attr interpolationmode sample-hold
vector 63 scenario.client1.tcp.conn-25 dupAcks:vector ETV
attr interpolationmode sample-hold
vector 64 scenario.client0.tcp.conn-27 tcpRcvQueueBytes:vector ETV
attr interpolationmode sample-hold
vector 65 scenario.client0.tcp.conn-27 rcvAdv:vector ETV
attr interpolationmode sample-hold
vector 66 scenario.client0.tcp.conn-27 rcvWnd:vector ETV
attr interpolationmode sample-hold
vector 67 scenario.client0.tcp.conn-27 sndAck:vector ETV
attr interpolationmode sample-hold
vector 68 scenario.client1.tcp.conn-1 rcvSeq:vector ETV
attr interpolationmode sample-hold
vector 69 scenario.client1.tcp.conn-1 rcvAck:vector ETV
attr interpolationmode sample-hold
vector 70 scenario.client1.tcp.conn-28 rcvAdv:vector ETV
attr interpolationmode sample-hold
vector 71 scenario.client1.tcp.conn-28 sndWnd:vector ETV
attr interpolationmode sample-hold
vector 72 scenario.client1.tcp.conn-28 tcpRcvQueueBytes:vector ETV
attr interpolationmode sample-hold
vector 73 scenario.client1.tcp.conn-28 rcvWnd:vector ETV
attr interpolationmode sample-hold
vector 74 scenario.client1.tcp.conn-28 sndAck:vector ETV
attr interpolationmode sample-hold
vector 75 scenario.client0.tcp.conn-27 rcvSeq:vector ETV
attr interpolationmode sample-hold
vector 76 scenario.client0.tcp.conn-27 rcvAck:vector ETV
attr interpolationmode sample-hold
vector 77 scenario.client0.tcp.conn-27 sndWnd:vector ETV
attr interpolationmode sample-hold
vector 78 scenario.client0.tcp.conn-27 unacked:vector ETV
attr interpolationmode sample-hold
vector 79 scenario.client1.tcp.conn-28 rcvSeq:vector ETV
attr interpolationmode sample-hold
vector 80 scenario.client1.tcp.conn-28 rcvAck:vector ETV
attr interpolationmode sample-hold
vector 81 scenario.client1.tcp.conn-28 unacked:vector ETV
attr interpolationmode sample-hold
vector 82 scenario.client1.tcp.conn-28 cwnd:vector ETV
attr interpolationmode sample-hold
vector 83 scenario.client1.tcp.conn-28 ssthresh:vector ETV
attr interpolationmode sample-hold
vector 84 scenario.client1.tcp.conn-28 dupAcks:vector ETV
attr interpolationmode sample-hold
vector 85 scenario.client0.tcp.conn-27 rtt:vector ETV
attr interpolationmode sample-hold
vector 86 scenario.client0.tcp.conn-27 srtt:vector ETV
attr interpolationmode sample-hold
vector 87 scenario.client0.tcp.conn-27 rttvar:vector ETV
attr interpolationmode sample-hold
vector 88 scenario.client0.tcp.conn-27 rto:vector ETV
attr interpolationmode sample-hold
vector 89 scenario.client0.tcp.conn-27 cwnd:vector ETV
attr interpolationmode sample-hold
vector 90 scenario.client0.tcp.conn-27 ssthresh:vector ETV
attr interpolationmode sample-hold
vector 91 scenario.client0.tcp.conn-27 dupAcks:vector ETV
attr interpolationmode sample-hold
vector 92 scenario.client1.tcp.conn-29 tcpRcvQueueBytes:vector ETV
attr interpolationmode sample-hold
vector 93 scenario.client1.tcp.conn-29 rcvAdv:vector ETV
attr interpolationmode sample-hold
vector 94 scenario.client1.tcp.conn-29 rcvWnd:vector ETV
attr interpolationmode sample-hold
vector 95 scenario.client1.tcp.conn-29 sndAck:vector ETV
attr interpolationmode sample-hold
vector 96 scenario.client1.ppp[1].ppp rcvdPkFromHl:vector(packetBytes) ETV
attr interpolationmode none
attr source packetReceivedFromUpper
attr title "packets received from higher layer, vector(packetBytes)"
vector 97 scenario.client1.ppp[1].ppp.queue packetPushed:vector(packetBytes) ETV
attr interpolationmode none
attr title "packet pushed, vector(packetBytes)"
vector 98 scenario.client1.ppp[1].ppp.queue queueLength:vector ETV
attr interpolationmode sample-hold
attr source "count(packetPushed) - count(packetPopped) - count(packetRemoved) - count(packetDropped)"
attr title "queue length, vector"
vector 99 scenario.client1.ppp[1].ppp.queue packetPopped:vector(packetBytes) ETV
attr interpolationmode none
attr title "packet popped, vector(packetBytes)"
vector 100 scenario.client1.ppp[1].ppp.queue queueingTime:vector ETV
attr interpolationmode none
attr source queueingTime(packetPopped)
attr title "queueing times, vector"
attr unit s
vector 101 scenario.client1.ppp[1].ppp txPk:vector(packetBytes) ETV
attr interpolationmode none
attr source packetSentToLower
attr title "packets transmitted, vector(packetBytes)"
vector 102 scenario.client2.ppp[1].ppp rxPkOk:vector(packetBytes) ETV
attr interpolationmode none
attr source rxPkOk
attr title "packets received OK, vector(packetBytes)"
vector 103 scenario.client2.ppp[1].ppp passedUpPk:vector(packetBytes) ETV
attr interpolationmode none
attr source packetSentToUpper
attr title "packets passed to higher layer, vector(packetBytes)"
vector 104 scenario.client2.tcp.conn-2 rcvSeq:vector ETV
attr interpolationmode sample-hold
vector 105 scenario.client2.tcp.conn-2 rcvAck:vector ETV
attr interpolationmode sample-hold
vector 106 scenario.client2.tcp.conn-30 rcvAdv:vector ETV
attr interpolationmode sample-hold
vector 107 scenario.client2.tcp.conn-30 sndWnd:vector ETV
attr interpolationmode sample-hold
vector 108 scenario.client2.tcp.conn-30 tcpRcvQueueBytes:vector ETV
attr interpolationmode sample-hold
vector 109 scenario.client2.tcp.conn-30 rcvWnd:vector ETV
attr interpolationmode sample-hold
vector 110 scenario.client2.tcp.conn-30 sndAck:vector ETV
attr interpolationmode sample-hold
vector 111 scenario.client2.ppp[1].ppp rcvdPkFromHl:vector(packetBytes) ETV
attr interpolationmode none
attr source packetReceivedFromUpper
attr title "packets received from higher layer, vector(packetBytes)"
vector 112 scenario.client2.ppp[1].ppp.queue packetPushed:vector(packetBytes) ETV
attr interpolationmode none
attr title "packet pushed, vector(packetBytes)"
vector 113 scenario.client2.ppp[1].ppp.queue queueLength:vector ETV
attr interpolationmode sample-hold
attr source "count(packetPushed) - count(packetPopped) - count(packetRemoved) - count(packetDropped)"
attr title "queue length, vector"
vector 114 scenario.client2.ppp[1].ppp.queue packetPopped:vector(packetBytes) ETV
attr interpolationmode none
attr title "packet popped, vector(packetBytes)"
vector 115 scenario.client2.ppp[1].ppp.queue queueingTime:vector ETV
attr interpolationmode none
attr source queueingTime(packetPopped)
attr title "queueing times, vector"
attr unit s
vector 116 scenario.client2.ppp[1].ppp txPk:vector(packetBytes) ETV
attr interpolationmode none
attr source packetSentToLower
attr title "packets transmitted, vector(packetBytes)"
vector 117 scenario.client1.ppp[1].ppp rxPkOk:vector(packetBytes) ETV
attr interpolationmode none
attr source rxPkOk
attr title "packets received OK, vector(packetBytes)"
vector 118 scenario.client1.ppp[1].ppp passedUpPk:vector(packetBytes) ETV
attr interpolationmode none
attr source packetSentToUpper
attr title "packets passed to higher layer, vector(packetBytes)"
vector 119 scenario.client1.tcp.conn-29 rcvSeq:vector ETV
attr interpolationmode sample-hold
vector 120 scenario.client1.tcp.conn-29 rcvAck:vector ETV
attr interpolationmode sample-hold
vector 121 scenario.client1.tcp.conn-29 sndWnd:vector ETV
attr interpolationmode sample-hold
vector 122 scenario.client1.tcp.conn-29 unacked:vector ETV
attr interpolationmode sample-hold
vector 123 scenario.client2.tcp.conn-30 rcvSeq:vector ETV
attr interpolationmode sample-hold
vector 124 scenario.client2.tcp.conn-30 rcvAck:vector ETV
attr interpolationmode sample-hold
vector 125 scenario.client2.tcp.conn-30 unacked:vector ETV
attr interpolationmode sample-hold
vector 126 scenario.client2.tcp.conn-30 cwnd:vector ETV
attr interpolationmode sample-hold
vector 127 scenario.client2.tcp.conn-30 ssthresh:vector ETV
attr interpolationmode sample-hold
vector 128 scenario.client2.tcp.conn-30 dupAcks:vector ETV
attr interpolationmode sample-hold
vector 129 scenario.client1.tcp.conn-29 rtt:vector ETV
attr interpolationmode sample-hold
vector 130 scenario.client1.tcp.conn-29 srtt:vector ETV
attr interpolationmode sample-hold
vector 131 scenario.client1.tcp.conn-29 rttvar:vector ETV
attr interpolationmode sample-hold
vector 132 scenario.client1.tcp.conn-29 rto:vector ETV
attr interpolationmode sample-hold
vector 133 scenario.client1.tcp.conn-29 cwnd:vector ETV
attr interpolationmode sample-hold
vector 134 scenario.client1.tcp.conn-29 ssthresh:vector ETV
attr interpolationmode sample-hold
vector 135 scenario.client1.tcp.conn-29 dupAcks:vector ETV
attr interpolationmode sample-hold
vector 136 scenario.client2.tcp.conn-31 tcpRcvQueueBytes:vector ETV
attr interpolationmode sample-hold
vector 137 scenario.client2.tcp.conn-31 rcvAdv:vector ETV
attr interpolationmode sample-hold
vector 138 scenario.client2.tcp.conn-31 rcvWnd:vector ETV
attr interpolationmode sample-hold
vector 139 scenario.client2.tcp.conn-31 sndAck:vector ETV
attr interpolationmode sample-hold
vector 140 scenario.client1.tcp.conn-32 rcvAdv:vector ETV
attr interpolationmode sample-hold
vector 141 scenario.client1.tcp.conn-32 sndWnd:vector ETV
attr interpolationmode sample-hold
vector 142 scenario.client1.tcp.conn-32 tcpRcvQueueBytes:vector ETV
attr interpolationmode sample-hold
vector 143 scenario.client1.tcp.conn-32 rcvWnd:vector ETV
attr interpolationmode sample-hold
vector 144 scenario.client1.tcp.conn-32 sndAck:vector ETV
attr interpolationmode sample-hold
vector 145 scenario.client2.tcp.conn-31 rcvSeq:vector ETV
attr interpolationmode sample-hold
vector 146 scenario.client2.tcp.conn-31 rcvAck:vector ETV
attr interpolationmode sample-hold
vector 147 scenario.client2.tcp.conn-31 sndWnd:vector ETV
attr interpolationmode sample-hold
vector 148 scenario.client2.tcp.conn-31 unacked:vector ETV
attr interpolationmode sample-hold
vector 149 scenario.client1.tcp.conn-32 rcvSeq:vector ETV
attr interpolationmode sample-hold
vector 150 scenario.client1.tcp.conn-32 rcvAck:vector ETV
attr interpolationmode sample-hold
vector 151 scenario.client1.tcp.conn-32 unacked:vector ETV
attr interpolationmode sample-hold
vector 152 scenario.client1.tcp.conn-32 cwnd:vector ETV
attr interpolationmode sample-hold
vector 153 scenario.client1.tcp.conn-32 ssthresh:vector ETV
attr interpolationmode sample-hold
vector 154 scenario.client1.tcp.conn-32 dupAcks:vector ETV
attr interpolationmode sample-hold
vector 155 scenario.client2.tcp.conn-31 rtt:vector ETV
attr interpolationmode sample-hold
vector 156 scenario.client2.tcp.conn-31 srtt:vector ETV
attr interpolationmode sample-hold
vector 157 scenario.client2.tcp.conn-31 rttvar:vector ETV
attr interpolationmode sample-hold
vector 158 scenario.client2.tcp.conn-31 rto:vector ETV
attr interpolationmode sample-hold
vector 159 scenario.client2.tcp.conn-31 cwnd:vector ETV
attr interpolationmode sample-hold
vector 160 scenario.client2.tcp.conn-31 ssthresh:vector ETV
attr interpolationmode sample-hold
vector 161 scenario.client2.tcp.conn-31 dupAcks:vector ETV
attr interpolationmode sample-hold
vector 162 scenario.client2.tcp.conn-33 tcpRcvQueueBytes:vector ETV
attr interpolationmode sample-hold
vector 163 scenario.client2.tcp.conn-33 rcvAdv:vector ETV
attr interpolationmode sample-hold
vector 164 scenario.client2.tcp.conn-33 rcvWnd:vector ETV
attr interpolationmode sample-hold
vector 165 scenario.client2.tcp.conn-33 sndAck:vector ETV
attr interpolationmode sample-hold
vector 166 scenario.client2.ppp[0].ppp rcvdPkFromHl:vector(packetBytes) ETV
attr interpolationmode none
attr source packetReceivedFromUpper
attr title "packets received from higher layer, vector(packetBytes)"
vector 167 scenario.client2.ppp[0].ppp.queue packetPushed:vector(packetBytes) ETV
attr interpolationmode none
attr title "packet pushed, vector(packetBytes)"
vector 168 scenario.client2.ppp[0].ppp.queue queueLength:vector ETV
attr interpolationmode sample-hold
attr source "count(packetPushed) - count(packetPopped) - count(packetRemoved) - count(packetDropped)"
attr title "queue length, vector"
vector 169 scenario.client2.ppp[0].ppp.queue packetPopped:vector(packetBytes) ETV
attr interpolationmode none
attr title "packet popped, vector(packetBytes)"
vector 170 scenario.client2.ppp[0].ppp.queue queueingTime:vector ETV
attr interpolationmode none
attr source queueingTime(packetPopped)
attr title "queueing times, vector"
attr unit s
vector 171 scenario.client2.ppp[0].ppp txPk:vector(packetBytes) ETV
attr interpolationmode none
attr source packetSentToLower
attr title "packets transmitted, vector(packetBytes)"
vector 172 scenario.client0.ppp[1].ppp rxPkOk:vector(packetBytes) ETV
attr interpolationmode none
attr source rxPkOk
attr title "packets received OK, vector(packetBytes)"
vector 173 scenario.client0.ppp[1].ppp passedUpPk:vector(packetBytes) ETV
attr interpolationmode none
attr source packetSentToUpper
attr title "packets passed to higher layer, vector(packetBytes)"
vector 174 scenario.client0.tcp.conn-34 rcvAdv:vector ETV
attr interpolationmode sample-hold
vector 175 scenario.client0.tcp.conn-34 sndWnd:vector ETV
attr interpolationmode sample-hold
vector 176 scenario.client0.tcp.conn-34 tcpRcvQueueBytes:vector ETV
attr interpolationmode sample-hold
vector 177 scenario.client0.tcp.conn-34 rcvWnd:vector ETV
attr interpolationmode sample-hold
vector 178 scenario.client0.tcp.conn-34 sndAck:vector ETV
attr interpolationmode sample-hold
vector 179 scenario.client0.ppp[1].ppp rcvdPkFromHl:vector(packetBytes) ETV
attr interpolationmode none
attr source packetReceivedFromUpper
attr title "packets received from higher layer, vector(packetBytes)"
vector 180 scenario.client0.ppp[1].ppp.queue packetPushed:vector(packetBytes) ETV
attr interpolationmode none
attr title "packet pushed, vector(packetBytes)"
vector 181 scenario.client0.ppp[1].ppp.queue queueLength:vector ETV
attr interpolationmode sample-hold
attr source "count(packetPushed) - count(packetPopped) - count(packetRemoved) - count(packetDropped)"
attr title "queue length, vector"
vector 182 scenario.client0.ppp[1].ppp.queue packetPopped:vector(packetBytes) ETV
attr interpolationmode none
attr title "packet popped, vector(packetBytes)"
vector 183 scenario.client0.ppp[1].ppp.queue queueingTime:vector ETV
attr interpolationmode none
attr source queueingTime(packetPopped)
attr title "queueing times, vector"
attr unit s
vector 184 scenario.client0.ppp[1].ppp txPk:vector(packetBytes) ETV
attr interpolationmode none
attr source packetSentToLower
attr title "packets transmitted, vector(packetBytes)"
vector 185 scenario.client2.ppp[0].ppp rxPkOk:vector(packetBytes) ETV
attr interpolationmode none
attr source rxPkOk
attr title "packets received OK, vector(packetBytes)"
vector 186 scenario.client2.ppp[0].ppp passedUpPk:vector(packetBytes) ETV
attr interpolationmode none
attr source packetSentToUpper
attr title "packets passed to higher layer, vector(packetBytes)"
vector 187 scenario.client2.tcp.conn-33 rcvSeq:vector ETV
attr interpolationmode sample-hold
vector 188 scenario.client2.tcp.conn-33 rcvAck:vector ETV
attr interpolationmode sample-hold
vector 189 scenario.client2.tcp.conn-33 sndWnd:vector ETV
attr interpolationmode sample-hold
vector 190 scenario.client2.tcp.conn-33 unacked:vector ETV
attr interpolationmode sample-hold
vector 191 scenario.client0.tcp.conn-34 rcvSeq:vector ETV
attr interpolationmode sample-hold
vector 192 scenario.client0.tcp.conn-34 rcvAck:vector ETV
attr interpolationmode sample-hold
vector 193 scenario.client0.tcp.conn-34 unacked:vector ETV
attr interpolationmode sample-hold
vector 194 scenario.client0.tcp.conn-34 cwnd:vector ETV
attr interpolationmode sample-hold
vector 195 scenario.client0.tcp.conn-34 ssthresh:vector ETV
attr interpolationmode sample-hold
vector 196 scenario.client0.tcp.conn-34 dupAcks:vector ETV
attr interpolationmode sample-hold
vector 197 scenario.client2.tcp.conn-33 rtt:vector ETV
attr interpolationmode sample-hold
vector 198 scenario.client2.tcp.conn-33 srtt:vector ETV
attr interpolationmode sample-hold
vector 199 scenario.client2.tcp.conn-33 rttvar:vector ETV
attr interpolationmode sample-hold
vector 200 scenario.client2.tcp.conn-33 rto:vector ETV
attr interpolationmode sample-hold
vector 201 scenario.client2.tcp.conn-33 cwnd:vector ETV
attr interpolationmode sample-hold
vector 202 scenario.client2.tcp.conn-33 ssthresh:vector ETV
attr interpolationmode sample-hold
vector 203 scenario.client2.tcp.conn-33 dupAcks:vector ETV
attr interpolationmode sample-hold
vector 204 scenario.client0.tcp.conn-35 tcpRcvQueueBytes:vector ETV
attr interpolationmode sample-hold
vector 205 scenario.client0.tcp.conn-35 rcvAdv:vector ETV
attr interpolationmode sample-hold
vector 206 scenario.client0.tcp.conn-35 rcvWnd:vector ETV
attr interpolationmode sample-hold
vector 207 scenario.client0.tcp.conn-35 sndAck:vector ETV
attr interpolationmode sample-hold
vector 208 scenario.client2.tcp.conn-36 rcvAdv:vector ETV
attr interpolationmode sample-hold
vector 209 scenario.client2.tcp.conn-36 sndWnd:vector ETV
attr interpolationmode sample-hold
vector 210 scenario.client2.tcp.conn-36 tcpRcvQueueBytes:vector ETV
attr interpolationmode sample-hold
vector 211 scenario.client2.tcp.conn-36 rcvWnd:vector ETV
attr interpolationmode sample-hold
vector 212 scenario.client2.tcp.conn-36 sndAck:vector ETV
attr interpolationmode sample-hold
vector 213 scenario.client0.tcp.conn-35 rcvSeq:vector ETV
attr interpolationmode sample-hold
vector 214 scenario.client0.tcp.conn-35 rcvAck:vector ETV
attr interpolationmode sample-hold
vector 215 scenario.client0.tcp.conn-35 sndWnd:vector ETV
attr interpolationmode sample-hold
vector 216 scenario.client0.tcp.conn-35 unacked:vector ETV
attr interpolationmode sample-hold
vector 217 scenario.client2.tcp.conn-36 rcvSeq:vector ETV
attr interpolationmode sample-hold
vector 218 scenario.client2.tcp.conn-36 rcvAck:vector ETV
attr interpolationmode sample-hold
vector 219 scenario.client2.tcp.conn-36 unacked:vector ETV
attr interpolationmode sample-hold
vector 220 scenario.client2.tcp.conn-36 cwnd:vector ETV
attr interpolationmode sample-hold
vector 221 scenario.client2.tcp.conn-36 ssthresh:vector ETV
attr interpolationmode sample-hold
vector 222 scenario.client2.tcp.conn-36 dupAcks:vector ETV
attr interpolationmode sample-hold
vector 223 scenario.client0.tcp.conn-35 rtt:vector ETV
attr interpolationmode sample-hold
vector 224 scenario.client0.tcp.conn-35 srtt:vector ETV
attr interpolationmode sample-hold
vector 225 scenario.client0.tcp.conn-35 rttvar:vector ETV
attr interpolationmode sample-hold
vector 226 scenario.client0.tcp.conn-35 rto:vector ETV
attr interpolationmode sample-hold
vector 227 scenario.client0.tcp.conn-35 cwnd:vector ETV
attr interpolationmode sample-hold
vector 228 scenario.client0.tcp.conn-35 ssthresh:vector ETV
attr interpolationmode sample-hold
vector 229 scenario.client0.tcp.conn-35 dupAcks:vector ETV
attr interpolationmode sample-hold
vector 230 scenario.client3.tcp.conn-37 tcpRcvQueueBytes:vector ETV
attr interpolationmode sample-hold
vector 231 scenario.client3.tcp.conn-37 rcvAdv:vector ETV
attr interpolationmode sample-hold
vector 232 scenario.client3.tcp.conn-37 rcvWnd:vector ETV
attr interpolationmode sample-hold
vector 233 scenario.client3.tcp.conn-37 sndAck:vector ETV
attr interpolationmode sample-hold
vector 234 scenario.client3.ppp[2].ppp rcvdPkFromHl:vector(packetBytes) ETV
attr interpolationmode none
attr source packetReceivedFromUpper
attr title "packets received from higher layer, vector(packetBytes)"
vector 235 scenario.client3.ppp[2].ppp.queue packetPushed:vector(packetBytes) ETV
attr interpolationmode none
attr title "packet pushed, vector(packetBytes)"
vector 236 scenario.client3.ppp[2].ppp.queue queueLength:vector ETV
attr interpolationmode sample-hold
attr source "count(packetPushed) - count(packetPopped) - count(packetRemoved) - count(packetDropped)"
attr title "queue length, vector"
vector 237 scenario.client3.ppp[2].ppp.queue packetPopped:vector(packetBytes) ETV
attr interpolationmode none
attr title "packet popped, vector(packetBytes)"
vector 238 scenario.client3.ppp[2].ppp.queue queueingTime:vector ETV
attr interpolationmode none
attr source queueingTime(packetPopped)
attr title "queueing times, vector"
attr unit s
vector 239 scenario.client3.ppp[2].ppp txPk:vector(packetBytes) ETV
attr interpolationmode none
attr source packetSentToLower
attr title "packets transmitted, vector(packetBytes)"
vector 240 scenario.client2.ppp[2].ppp rxPkOk:vector(packetBytes) ETV
attr interpolationmode none
attr source rxPkOk
attr title "packets received OK, vector(packetBytes)"
vector 241 scenario.client2.ppp[2].ppp passedUpPk:vector(packetBytes) ETV
attr interpolationmode none
attr source packetSentToUpper
attr title "packets passed to higher layer, vector(packetBytes)"
vector 242 scenario.client2.tcp.conn-38 rcvAdv:vector ETV
attr interpolationmode sample-hold
vector 243 scenario.client2.tcp.conn-38 sndWnd:vector ETV
attr interpolationmode sample-hold
vector 244 scenario.client2.tcp.conn-38 tcpRcvQueueBytes:vector ETV
attr interpolationmode sample-hold
vector 245 scenario.client2.tcp.conn-38 rcvWnd:vector ETV
attr interpolationmode sample-hold
vector 246 scenario.client2.tcp.conn-38 sndAck:vector ETV
attr interpolationmode sample-hold
vector 247 scenario.client2.ppp[2].ppp rcvdPkFromHl:vector(packetBytes) ETV
attr interpolationmode none
attr source packetReceivedFromUpper
attr title "packets received from higher layer, vector(packetBytes)"
vector 248 scenario.client2.ppp[2].ppp.queue packetPushed:vector(packetBytes) ETV
attr interpolationmode none
attr title "packet pushed, vector(packetBytes)"
vector 249 scenario.client2.ppp[2].ppp.queue queueLength:vector ETV
attr interpolationmode sample-hold
attr source "count(packetPushed) - count(packetPopped) - count(packetRemoved) - count(packetDropped)"
attr title "queue length, vector"
vector 250 scenario.client2.ppp[2].ppp.queue packetPopped:vector(packetBytes) ETV
attr interpolationmode none
attr title "packet popped, vector(packetBytes)"
vector 251 scenario.client2.ppp[2].ppp.queue queueingTime:vector ETV
attr interpolationmode none
attr source queueingTime(packetPopped)
attr title "queueing times, vector"
attr unit s
vector 252 scenario.client2.ppp[2].ppp txPk:vector(packetBytes) ETV
attr interpolationmode none
attr source packetSentToLower
attr title "packets transmitted, vector(packetBytes)"
vector 253 scenario.client3.ppp[2].ppp rxPkOk:vector(packetBytes) ETV
attr interpolationmode none
attr source rxPkOk
attr title "packets received OK, vector(packetBytes)"
vector 254 scenario.client3.ppp[2].ppp passedUpPk:vector(packetBytes) ETV
attr interpolationmode none
attr source packetSentToUpper
attr title "packets passed to higher layer, vector(packetBytes)"
vector 255 scenario.client3.tcp.conn-37 rcvSeq:vector ETV
attr interpolationmode sample-hold
vector 256 scenario.client3.tcp.conn-37 rcvAck:vector ETV
attr interpolationmode sample-hold
vector 257 scenario.client3.tcp.conn-37 sndWnd:vector ETV
attr interpolationmode sample-hold
vector 258 scenario.client3.tcp.conn-37 unacked:vector ETV
attr interpolationmode sample-hold
vector 259 scenario.client2.tcp.conn-38 rcvSeq:vector ETV
attr interpolationmode sample-hold
vector 260 scenario.client2.tcp.conn-38 rcvAck:vector ETV
attr interpolationmode sample-hold
vector 261 scenario.client2.tcp.conn-38 unacked:vector ETV
attr interpolationmode sample-hold
vector 262 scenario.client2.tcp.conn-38 cwnd:vector ETV
attr interpolationmode sample-hold
vector 263 scenario.client2.tcp.conn-38 ssthresh:vector ETV
attr interpolationmode sample-hold
vector 264 scenario.client2.tcp.conn-38 dupAcks:vector ETV
attr interpolationmode sample-hold
vector 265 scenario.client3.tcp.conn-37 rtt:vector ETV
attr interpolationmode sample-hold
vector 266 scenario.client3.tcp.conn-37 srtt:vector ETV
attr interpolationmode sample-hold
vector 267 scenario.client3.tcp.conn-37 rttvar:vector ETV
attr interpolationmode sample-hold
vector 268 scenario.client3.tcp.conn-37 rto:vector ETV
attr interpolationmode sample-hold
vector 269 scenario.client3.tcp.conn-37 cwnd:vector ETV
attr interpolationmode sample-hold
vector 270 scenario.client3.tcp.conn-37 ssthresh:vector ETV
attr interpolationmode sample-hold
vector 271 scenario.client3.tcp.conn-37 dupAcks:vector ETV
attr interpolationmode sample-hold
vector 272 scenario.client3.tcp.conn-39 tcpRcvQueueBytes:vector ETV
attr interpolationmode sample-hold
vector 273 scenario.client3.tcp.conn-39 rcvAdv:vector ETV
attr interpolationmode sample-hold
vector 274 scenario.client3.tcp.conn-39 rcvWnd:vector ETV
attr interpolationmode sample-hold
vector 275 scenario.client3.tcp.conn-39 sndAck:vector ETV
attr interpolationmode sample-hold
vector 276 scenario.client3.ppp[0].ppp rcvdPkFromHl:vector(packetBytes) ETV
attr interpolationmode none
attr source packetReceivedFromUpper
attr title "packets received from higher layer, vector(packetBytes)"
vector 277 scenario.client3.ppp[0].ppp.queue packetPushed:vector(packetBytes) ETV
attr interpolationmode none
attr title "packet pushed, vector(packetBytes)"
vector 278 scenario.client3.ppp[0].ppp.queue queueLength:vector ETV
attr interpolationmode sample-hold
attr source "count(packetPushed) - count(packetPopped) - count(packetRemoved) - count(packetDropped)"
attr title "queue length, vector"
vector 279 scenario.client3.ppp[0].ppp.queue packetPopped:vector(packetBytes) ETV
attr interpolationmode none
attr title "packet popped, vector(packetBytes)"
vector 280 scenario.client3.ppp[0].ppp.queue queueingTime:vector ETV
attr interpolationmode none
attr source queueingTime(packetPopped)
attr title "queueing times, vector"
attr unit s
vector 281 scenario.client3.ppp[0].ppp txPk:vector(packetBytes) ETV
attr interpolationmode none
attr source packetSentToLower
attr title "packets transmitted, vector(packetBytes)"
vector 282 scenario.client0.ppp[2].ppp rxPkOk:vector(packetBytes) ETV
attr interpolationmode none
attr source rxPkOk
attr title "packets received OK, vector(packetBytes)"
vector 283 scenario.client0.ppp[2].ppp passedUpPk:vector(packetBytes) ETV
attr interpolationmode none
attr source packetSentToUpper
attr title "packets passed to higher layer, vector(packetBytes)"
vector 284 scenario.client0.tcp.conn-40 rcvAdv:vector ETV
attr interpolationmode sample-hold
vector 285 scenario.client0.tcp.conn-40 sndWnd:vector ETV
attr interpolationmode sample-hold
vector 286 scenario.client0.tcp.conn-40 tcpRcvQueueBytes:vector ETV
attr interpolationmode sample-hold
vector 287 scenario.client0.tcp.conn-40 rcvWnd:vector ETV
attr interpolationmode sample-hold
vector 288 scenario.client0.tcp.conn-40 sndAck:vector ETV
attr interpolationmode sample-hold
vector 289 scenario.client0.ppp[2].ppp rcvdPkFromHl:vector(packetBytes) ETV
attr interpolationmode none
attr source packetReceivedFromUpper
attr title "packets received from higher layer, vector(packetBytes)"
vector 290 scenario.client0.ppp[2].ppp.queue packetPushed:vector(packetBytes) ETV
attr interpolationmode none
attr title "packet pushed, vector(packetBytes)"
vector 291 scenario.client0.ppp[2].ppp.queue queueLength:vector ETV
attr interpolationmode sample-hold
attr source "count(packetPushed) - count(packetPopped) - count(packetRemoved) - count(packetDropped)"
attr title "queue length, vector"
vector 292 scenario.client0.ppp[2].ppp.queue packetPopped:vector(packetBytes) ETV
attr interpolationmode none
attr title "packet popped, vector(packetBytes)"
vector 293 scenario.client0.ppp[2].ppp.queue queueingTime:vector ETV
attr interpolationmode none
attr source queueingTime(packetPopped)
attr title "queueing times, vector"
attr unit s
vector 294 scenario.client0.ppp[2].ppp txPk:vector(packetBytes) ETV
attr interpolationmode none
attr source packetSentToLower
attr title "packets transmitted, vector(packetBytes)"
vector 295 scenario.client3.ppp[0].ppp rxPkOk:vector(packetBytes) ETV
attr interpolationmode none
attr source rxPkOk
attr title "packets received OK, vector(packetBytes)"
vector 296 scenario.client3.ppp[0].ppp passedUpPk:vector(packetBytes) ETV
attr interpolationmode none
attr source packetSentToUpper
attr title "packets passed to higher layer, vector(packetBytes)"
vector 297 scenario.client3.tcp.conn-39 rcvSeq:vector ETV
attr interpolationmode sample-hold
vector 298 scenario.client3.tcp.conn-39 rcvAck:vector ETV
attr interpolationmode sample-hold
vector 299 scenario.client3.tcp.conn-39 sndWnd:vector ETV
attr interpolationmode sample-hold
vector 300 scenario.client3.tcp.conn-39 unacked:vector ETV
attr interpolationmode sample-hold
vector 301 scenario.client0.tcp.conn-40 rcvSeq:vector ETV
attr interpolationmode sample-hold
vector 302 scenario.client0.tcp.conn-40 rcvAck:vector ETV
attr interpolationmode sample-hold
vector 303 scenario.client0.tcp.conn-40 unacked:vector ETV
attr interpolationmode sample-hold
vector 304 scenario.client0.tcp.conn-40 cwnd:vector ETV
attr interpolationmode sample-hold
vector 305 scenario.client0.tcp.conn-40 ssthresh:vector ETV
attr interpolationmode sample-hold
vector 306 scenario.client0.tcp.conn-40 dupAcks:vector ETV
attr interpolationmode sample-hold
vector 307 scenario.client3.tcp.conn-39 rtt:vector ETV
attr interpolationmode sample-hold
vector 308 scenario.client3.tcp.conn-39 srtt:vector ETV
attr interpolationmode sample-hold
vector 309 scenario.client3.tcp.conn-39 rttvar:vector ETV
attr interpolationmode sample-hold
vector 310 scenario.client3.tcp.conn-39 rto:vector ETV
attr interpolationmode sample-hold
vector 311 scenario.client3.tcp.conn-39 cwnd:vector ETV
attr interpolationmode sample-hold
vector 312 scenario.client3.tcp.conn-39 ssthresh:vector ETV
attr interpolationmode sample-hold
vector 313 scenario.client3.tcp.conn-39 dupAcks:vector ETV
attr interpolationmode sample-hold
vector 314 scenario.client3.tcp.conn-41 tcpRcvQueueBytes:vector ETV
attr interpolationmode sample-hold
vector 315 scenario.client3.tcp.conn-41 rcvAdv:vector ETV
attr interpolationmode sample-hold
vector 316 scenario.client3.tcp.conn-41 rcvWnd:vector ETV
attr interpolationmode sample-hold
vector 317 scenario.client3.tcp.conn-41 sndAck:vector ETV
attr interpolationmode sample-hold
vector 318 scenario.client3.ppp[1].ppp rcvdPkFromHl:vector(packetBytes) ETV
attr interpolationmode none
attr source packetReceivedFromUpper
attr title "packets received from higher layer, vector(packetBytes)"
vector 319 scenario.client3.ppp[1].ppp.queue packetPushed:vector(packetBytes) ETV
attr interpolationmode none
attr title "packet pushed, vector(packetBytes)"
vector 320 scenario.client3.ppp[1].ppp.queue queueLength:vector ETV
attr interpolationmode sample-hold
attr source "count(packetPushed) - count(packetPopped) - count(packetRemoved) - count(packetDropped)"
attr title "queue length, vector"
vector 321 scenario.client3.ppp[1].ppp.queue packetPopped:vector(packetBytes) ETV
attr interpolationmode none
attr title "packet popped, vector(packetBytes)"
vector 322 scenario.client3.ppp[1].ppp.queue queueingTime:vector ETV
attr interpolationmode none
attr source queueingTime(packetPopped)
attr title "queueing times, vector"
attr unit s
vector 323 scenario.client3.ppp[1].ppp txPk:vector(packetBytes) ETV
attr interpolationmode none
attr source packetSentToLower
attr title "packets transmitted, vector(packetBytes)"
vector 324 scenario.client1.ppp[2].ppp rxPkOk:vector(packetBytes) ETV
attr interpolationmode none
attr source rxPkOk
attr title "packets received OK, vector(packetBytes)"
vector 325 scenario.client1.ppp[2].ppp passedUpPk:vector(packetBytes) ETV
attr interpolationmode none
attr source packetSentToUpper
attr title "packets passed to higher layer, vector(packetBytes)"
vector 326 scenario.client1.tcp.conn-42 rcvAdv:vector ETV
attr interpolationmode sample-hold
vector 327 scenario.client1.tcp.conn-42 sndWnd:vector ETV
attr interpolationmode sample-hold
vector 328 scenario.client1.tcp.conn-42 tcpRcvQueueBytes:vector ETV
attr interpolationmode sample-hold
vector 329 scenario.client1.tcp.conn-42 rcvWnd:vector ETV
attr interpolationmode sample-hold
vector 330 scenario.client1.tcp.conn-42 sndAck:vector ETV
attr interpolationmode sample-hold
vector 331 scenario.client1.ppp[2].ppp rcvdPkFromHl:vector(packetBytes) ETV
attr interpolationmode none
attr source packetReceivedFromUpper
attr title "packets received from higher layer, vector(packetBytes)"
vector 332 scenario.client1.ppp[2].ppp.queue packetPushed:vector(packetBytes) ETV
attr interpolationmode none
attr title "packet pushed, vector(packetBytes)"
vector 333 scenario.client1.ppp[2].ppp.queue queueLength:vector ETV
attr interpolationmode sample-hold
attr source "count(packetPushed) - count(packetPopped) - count(packetRemoved) - count(packetDropped)"
attr title "queue length, vector"
vector 334 scenario.client1.ppp[2].ppp.queue packetPopped:vector(packetBytes) ETV
attr interpolationmode none
attr title "packet popped, vector(packetBytes)"
vector 335 scenario.client1.ppp[2].ppp.queue queueingTime:vector ETV
attr interpolationmode none
attr source queueingTime(packetPopped)
attr title "queueing times, vector"
attr unit s
vector 336 scenario.client1.ppp[2].ppp txPk:vector(packetBytes) ETV
attr interpolationmode none
attr source packetSentToLower
attr title "packets transmitted, vector(packetBytes)"
vector 337 scenario.client3.ppp[1].ppp rxPkOk:vector(packetBytes) ETV
attr interpolationmode none
attr source rxPkOk
attr title "packets received OK, vector(packetBytes)"
vector 338 scenario.client3.ppp[1].ppp passedUpPk:vector(packetBytes) ETV
attr interpolationmode none
attr source packetSentToUpper
attr title "packets passed to higher layer, vector(packetBytes)"
vector 339 scenario.client3.tcp.conn-41 rcvSeq:vector ETV
attr interpolationmode sample-hold
vector 340 scenario.client3.tcp.conn-41 rcvAck:vector ETV
attr interpolationmode sample-hold
vector 341 scenario.client3.tcp.conn-41 sndWnd:vector ETV
attr interpolationmode sample-hold
vector 342 scenario.client3.tcp.conn-41 unacked:vector ETV
attr interpolationmode sample-hold
vector 343 scenario.client1.tcp.conn-42 rcvSeq:vector ETV
attr interpolationmode sample-hold
vector 344 scenario.client1.tcp.conn-42 rcvAck:vector ETV
attr interpolationmode sample-hold
vector 345 scenario.client1.tcp.conn-42 unacked:vector ETV
attr interpolationmode sample-hold
vector 346 scenario.client1.tcp.conn-42 cwnd:vector ETV
attr interpolationmode sample-hold
vector 347 scenario.client1.tcp.conn-42 ssthresh:vector ETV
attr interpolationmode sample-hold
vector 348 scenario.client1.tcp.conn-42 dupAcks:vector ETV
attr interpolationmode sample-hold
vector 349 scenario.client3.tcp.conn-41 rtt:vector ETV
attr interpolationmode sample-hold
vector 350 scenario.client3.tcp.conn-41 srtt:vector ETV
attr interpolationmode sample-hold
vector 351 scenario.client3.tcp.conn-41 rttvar:vector ETV
attr interpolationmode sample-hold
vector 352 scenario.client3.tcp.conn-41 rto:vector ETV
attr interpolationmode sample-hold
vector 353 scenario.client3.tcp.conn-41 cwnd:vector ETV
attr interpolationmode sample-hold
vector 354 scenario.client3.tcp.conn-41 ssthresh:vector ETV
attr interpolationmode sample-hold
vector 355 scenario.client3.tcp.conn-41 dupAcks:vector ETV
attr interpolationmode sample-hold
vector 356 scenario.client0.tcp.conn-43 tcpRcvQueueBytes:vector ETV
attr interpolationmode sample-hold
vector 357 scenario.client0.tcp.conn-43 rcvAdv:vector ETV
attr interpolationmode sample-hold
vector 358 scenario.client0.tcp.conn-43 rcvWnd:vector ETV
attr interpolationmode sample-hold
vector 359 scenario.client0.tcp.conn-43 sndAck:vector ETV
attr interpolationmode sample-hold
vector 360 scenario.client3.tcp.conn-3 rcvSeq:vector ETV
attr interpolationmode sample-hold
vector 361 scenario.client3.tcp.conn-3 rcvAck:vector ETV
attr interpolationmode sample-hold
vector 362 scenario.client3.tcp.conn-44 rcvAdv:vector ETV
attr interpolationmode sample-hold
vector 363 scenario.client3.tcp.conn-44 sndWnd:vector ETV
attr interpolationmode sample-hold
vector 364 scenario.client3.tcp.conn-44 tcpRcvQueueBytes:vector ETV
attr interpolationmode sample-hold
vector 365 scenario.client3.tcp.conn-44 rcvWnd:vector ETV
attr interpolationmode sample-hold
vector 366 scenario.client3.tcp.conn-44 sndAck:vector ETV
attr interpolationmode sample-hold
vector 367 scenario.client0.tcp.conn-43 rcvSeq:vector ETV
attr interpolationmode sample-hold
vector 368 scenario.client0.tcp.conn-43 rcvAck:vector ETV
attr interpolationmode sample-hold
vector 369 scenario.client0.tcp.conn-43 sndWnd:vector ETV
attr interpolationmode sample-hold
vector 370 scenario.client0.tcp.conn-43 unacked:vector ETV
attr interpolationmode sample-hold
vector 371 scenario.client3.tcp.conn-44 rcvSeq:vector ETV
attr interpolationmode sample-hold
vector 372 scenario.client3.tcp.conn-44 rcvAck:vector ETV
attr interpolationmode sample-hold
vector 373 scenario.client3.tcp.conn-44 unacked:vector ETV
attr interpolationmode sample-hold
vector 374 scenario.client3.tcp.conn-44 cwnd:vector ETV
attr interpolationmode sample-hold
vector 375 scenario.client3.tcp.conn-44 ssthresh:vector ETV
attr interpolationmode sample-hold
vector 376 scenario.client3.tcp.conn-44 dupAcks:vector ETV
attr interpolationmode sample-hold
vector 377 scenario.client0.tcp.conn-43 rtt:vector ETV
attr interpolationmode sample-hold
vector 378 scenario.client0.tcp.conn-43 srtt:vector ETV
attr interpolationmode sample-hold
vector 379 scenario.client0.tcp.conn-43 rttvar:vector ETV
attr interpolationmode sample-hold
vector 380 scenario.client0.tcp.conn-43 rto:vector ETV
attr interpolationmode sample-hold
vector 381 scenario.client0.tcp.conn-43 cwnd:vector ETV
attr interpolationmode sample-hold
vector 382 scenario.client0.tcp.conn-43 ssthresh:vector ETV
attr interpolationmode sample-hold
vector 383 scenario.client0.tcp.conn-43 dupAcks:vector ETV
attr interpolationmode sample-hold
vector 384 scenario.client2.tcp.conn-45 tcpRcvQueueBytes:vector ETV
attr interpolationmode sample-hold
vector 385 scenario.client2.tcp.conn-45 rcvAdv:vector ETV
attr interpolationmode sample-hold
vector 386 scenario.client2.tcp.conn-45 rcvWnd:vector ETV
attr interpolationmode sample-hold
vector 387 scenario.client2.tcp.conn-45 sndAck:vector ETV
attr interpolationmode sample-hold
vector 388 scenario.client3.tcp.conn-46 rcvAdv:vector ETV
attr interpolationmode sample-hold
vector 389 scenario.client3.tcp.conn-46 sndWnd:vector ETV
attr interpolationmode sample-hold
vector 390 scenario.client3.tcp.conn-46 tcpRcvQueueBytes:vector ETV
attr interpolationmode sample-hold
vector 391 scenario.client3.tcp.conn-46 rcvWnd:vector ETV
attr interpolationmode sample-hold
vector 392 scenario.client3.tcp.conn-46 sndAck:vector ETV
attr interpolationmode sample-hold
vector 393 scenario.client2.tcp.conn-45 rcvSeq:vector ETV
attr interpolationmode sample-hold
vector 394 scenario.client2.tcp.conn-45 rcvAck:vector ETV
attr interpolationmode sample-hold
vector 395 scenario.client2.tcp.conn-45 sndWnd:vector ETV
attr interpolationmode sample-hold
vector 396 scenario.client2.tcp.conn-45 unacked:vector ETV
attr interpolationmode sample-hold
vector 397 scenario.client3.tcp.conn-46 rcvSeq:vector ETV
attr interpolationmode sample-hold
vector 398 scenario.client3.tcp.conn-46 rcvAck:vector ETV
attr interpolationmode sample-hold
vector 399 scenario.client3.tcp.conn-46 unacked:vector ETV
attr interpolationmode sample-hold
vector 400 scenario.client3.tcp.conn-46 cwnd:vector ETV
attr interpolationmode sample-hold
vector 401 scenario.client3.tcp.conn-46 ssthresh:vector ETV
attr interpolationmode sample-hold
vector 402 scenario.client3.tcp.conn-46 dupAcks:vector ETV
attr interpolationmode sample-hold
vector 403 scenario.client2.tcp.conn-45 rtt:vector ETV
attr interpolationmode sample-hold
vector 404 scenario.client2.tcp.conn-45 srtt:vector ETV
attr interpolationmode sample-hold
vector 405 scenario.client2.tcp.conn-45 rttvar:vector ETV
attr interpolationmode sample-hold
vector 406 scenario.client2.tcp.conn-45 rto:vector ETV
attr interpolationmode sample-hold
vector 407 scenario.client2.tcp.conn-45 cwnd:vector ETV
attr interpolationmode sample-hold
vector 408 scenario.client2.tcp.conn-45 ssthresh:vector ETV
attr interpolationmode sample-hold
vector 409 scenario.client2.tcp.conn-45 dupAcks:vector ETV
attr interpolationmode sample-hold
vector 410 scenario.client1.tcp.conn-47 tcpRcvQueueBytes:vector ETV
attr interpolationmode sample-hold
vector 411 scenario.client1.tcp.conn-47 rcvAdv:vector ETV
attr interpolationmode sample-hold
vector 412 scenario.client1.tcp.conn-47 rcvWnd:vector ETV
attr interpolationmode sample-hold
vector 413 scenario.client1.tcp.conn-47 sndAck:vector ETV
attr interpolationmode sample-hold
vector 414 scenario.client3.tcp.conn-48 rcvAdv:vector ETV
attr interpolationmode sample-hold
vector 415 scenario.client3.tcp.conn-48 sndWnd:vector ETV
attr interpolationmode sample-hold
vector 416 scenario.client3.tcp.conn-48 tcpRcvQueueBytes:vector ETV
attr interpolationmode sample-hold
vector 417 scenario.client3.tcp.conn-48 rcvWnd:vector ETV
attr interpolationmode sample-hold
vector 418 scenario.client3.tcp.conn-48 sndAck:vector ETV
attr interpolationmode sample-hold
vector 419 scenario.client1.tcp.conn-47 rcvSeq:vector ETV
attr interpolationmode sample-hold
vector 420 scenario.client1.tcp.conn-47 rcvAck:vector ETV
attr interpolationmode sample-hold
vector 421 scenario.client1.tcp.conn-47 sndWnd:vector ETV
attr interpolationmode sample-hold
vector 422 scenario.client1.tcp.conn-47 unacked:vector ETV
attr interpolationmode sample-hold
vector 423 scenario.client3.tcp.conn-48 rcvSeq:vector ETV
attr interpolationmode sample-hold
vector 424 scenario.client3.tcp.conn-48 rcvAck:vector ETV
attr interpolationmode sample-hold
vector 425 scenario.client3.tcp.conn-48 unacked:vector ETV
attr interpolationmode sample-hold
vector 426 scenario.client3.tcp.conn-48 cwnd:vector ETV
attr interpolationmode sample-hold
vector 427 scenario.client3.tcp.conn-48 ssthresh:vector ETV
attr interpolationmode sample-hold
vector 428 scenario.client3.tcp.conn-48 dupAcks:vector ETV
attr interpolationmode sample-hold
vector 429 scenario.client1.tcp.conn-47 rtt:vector ETV
attr interpolationmode sample-hold
vector 430 scenario.client1.tcp.conn-47 srtt:vector ETV
attr interpolationmode sample-hold
vector 431 scenario.client1.tcp.conn-47 rttvar:vector ETV
attr interpolationmode sample-hold
vector 432 scenario.client1.tcp.conn-47 rto:vector ETV
attr interpolationmode sample-hold
vector 433 scenario.client1.tcp.conn-47 cwnd:vector ETV
attr interpolationmode sample-hold
vector 434 scenario.client1.tcp.conn-47 ssthresh:vector ETV
attr interpolationmode sample-hold
vector 435 scenario.client1.tcp.conn-47 dupAcks:vector ETV
attr interpolationmode sample-hold
vector 436 scenario.client4.tcp.conn-49 tcpRcvQueueBytes:vector ETV
attr interpolationmode sample-hold
vector 437 scenario.client4.tcp.conn-49 rcvAdv:vector ETV
attr interpolationmode sample-hold
vector 438 scenario.client4.tcp.conn-49 rcvWnd:vector ETV
attr interpolationmode sample-hold
vector 439 scenario.client4.tcp.conn-49 sndAck:vector ETV
attr interpolationmode sample-hold
vector 440 scenario.client4.ppp[1].ppp rcvdPkFromHl:vector(packetBytes) ETV
attr interpolationmode none
attr source packetReceivedFromUpper
attr title "packets received from higher layer, vector(packetBytes)"
vector 441 scenario.client4.ppp[1].ppp.queue packetPushed:vector(packetBytes) ETV
attr interpolationmode none
attr title "packet pushed, vector(packetBytes)"
vector 442 scenario.client4.ppp[1].ppp.queue queueLength:vector ETV
attr interpolationmode sample-hold
attr source "count(packetPushed) - count(packetPopped) - count(packetRemoved) - count(packetDropped)"
attr title "queue length, vector"
vector 443 scenario.client4.ppp[1].ppp.queue packetPopped:vector(packetBytes) ETV
attr interpolationmode none
attr title "packet popped, vector(packetBytes)"
vector 444 scenario.client4.ppp[1].ppp.queue queueingTime:vector ETV
attr interpolationmode none
attr source queueingTime(packetPopped)
attr title "queueing times, vector"
attr unit s
vector 445 scenario.client4.ppp[1].ppp txPk:vector(packetBytes) ETV
attr interpolationmode none
attr source packetSentToLower
attr title "packets transmitted, vector(packetBytes)"
vector 446 scenario.client1.ppp[3].ppp rxPkOk:vector(packetBytes) ETV
attr interpolationmode none
attr source rxPkOk
attr title "packets received OK, vector(packetBytes)"
vector 447 scenario.client1.ppp[3].ppp passedUpPk:vector(packetBytes) ETV
attr interpolationmode none
attr source packetSentToUpper
attr title "packets passed to higher layer, vector(packetBytes)"
vector 448 scenario.client1.tcp.conn-50 rcvAdv:vector ETV
attr interpolationmode sample-hold
vector 449 scenario.client1.tcp.conn-50 sndWnd:vector ETV
attr interpolationmode sample-hold
vector 450 scenario.client1.tcp.conn-50 tcpRcvQueueBytes:vector ETV
attr interpolationmode sample-hold
vector 451 scenario.client1.tcp.conn-50 rcvWnd:vector ETV
attr interpolationmode sample-hold
vector 452 scenario.client1.tcp.conn-50 sndAck:vector ETV
attr interpolationmode sample-hold
vector 453 scenario.client1.ppp[3].ppp rcvdPkFromHl:vector(packetBytes) ETV
attr interpolationmode none
attr source packetReceivedFromUpper
attr title "packets received from higher layer, vector(packetBytes)"
vector 454 scenario.client1.ppp[3].ppp.queue packetPushed:vector(packetBytes) ETV
attr interpolationmode none
attr title "packet pushed, vector(packetBytes)"
vector 455 scenario.client1.ppp[3].ppp.queue queueLength:vector ETV
attr interpolationmode sample-hold
attr source "count(packetPushed) - count(packetPopped) - count(packetRemoved) - count(packetDropped)"
attr title "queue length, vector"
vector 456 scenario.client1.ppp[3].ppp.queue packetPopped:vector(packetBytes) ETV
attr interpolationmode none
attr title "packet popped, vector(packetBytes)"
vector 457 scenario.client1.ppp[3].ppp.queue queueingTime:vector ETV
attr interpolationmode none
attr source queueingTime(packetPopped)
attr title "queueing times, vector"
attr unit s
vector 458 scenario.client1.ppp[3].ppp txPk:vector(packetBytes) ETV
attr interpolationmode none
attr source packetSentToLower
attr title "packets transmitted, vector(packetBytes)"
vector 459 scenario.client4.ppp[1].ppp rxPkOk:vector(packetBytes) ETV
attr interpolationmode none
attr source rxPkOk
attr title "packets received OK, vector(packetBytes)"
vector 460 scenario.client4.ppp[1].ppp passedUpPk:vector(packetBytes) ETV
attr interpolationmode none
attr source packetSentToUpper
attr title "packets passed to higher layer, vector(packetBytes)"
vector 461 scenario.client4.tcp.conn-49 rcvSeq:vector ETV
attr interpolationmode sample-hold
vector 462 scenario.client4.tcp.conn-49 rcvAck:vector ETV
attr interpolationmode sample-hold
vector 463 scenario.client4.tcp.conn-49 sndWnd:vector ETV
attr interpolationmode sample-hold
vector 464 scenario.client4.tcp.conn-49 unacked:vector ETV
attr interpolationmode sample-hold
vector 465 scenario.client1.tcp.conn-50 rcvSeq:vector ETV
attr interpolationmode sample-hold
vector 466 scenario.client1.tcp.conn-50 rcvAck:vector ETV
attr interpolationmode sample-hold
vector 467 scenario.client1.tcp.conn-50 unacked:vector ETV
attr interpolationmode sample-hold
vector 468 scenario.client1.tcp.conn-50 cwnd:vector ETV
attr interpolationmode sample-hold
vector 469 scenario.client1.tcp.conn-50 ssthresh:vector ETV
attr interpolationmode sample-hold
vector 470 scenario.client1.tcp.conn-50 dupAcks:vector ETV
attr interpolationmode sample-hold
vector 471 scenario.client4.tcp.conn-49 rtt:vector ETV
attr interpolationmode sample-hold
vector 472 scenario.client4.tcp.conn-49 srtt:vector ETV
attr interpolationmode sample-hold
vector 473 scenario.client4.tcp.conn-49 rttvar:vector ETV
attr interpolationmode sample-hold
vector 474 scenario.client4.tcp.conn-49 rto:vector ETV
attr interpolationmode sample-hold
vector 475 scenario.client4.tcp.conn-49 cwnd:vector ETV
attr interpolationmode sample-hold
vector 476 scenario.client4.tcp.conn-49 ssthresh:vector ETV
attr interpolationmode sample-hold
vector 477 scenario.client4.tcp.conn-49 dupAcks:vector ETV
attr interpolationmode sample-hold
vector 478 scenario.client4.tcp.conn-51 tcpRcvQueueBytes:vector ETV
attr interpolationmode sample-hold
vector 479 scenario.client4.tcp.conn-51 rcvAdv:vector ETV
attr interpolationmode sample-hold
vector 480 scenario.client4.tcp.conn-51 rcvWnd:vector ETV
attr interpolationmode sample-hold
vector 481 scenario.client4.tcp.conn-51 sndAck:vector ETV
attr interpolationmode sample-hold
vector 482 scenario.client4.ppp[2].ppp rcvdPkFromHl:vector(packetBytes) ETV
attr interpolationmode none
attr source packetReceivedFromUpper
attr title "packets received from higher layer, vector(packetBytes)"
vector 483 scenario.client4.ppp[2].ppp.queue packetPushed:vector(packetBytes) ETV
attr interpolationmode none
attr title "packet pushed, vector(packetBytes)"
vector 484 scenario.client4.ppp[2].ppp.queue queueLength:vector ETV
attr interpolationmode sample-hold
attr source "count(packetPushed) - count(packetPopped) - count(packetRemoved) - count(packetDropped)"
attr title "queue length, vector"
vector 485 scenario.client4.ppp[2].ppp.queue packetPopped:vector(packetBytes) ETV
attr interpolationmode none
attr title "packet popped, vector(packetBytes)"
vector 486 scenario.client4.ppp[2].ppp.queue queueingTime:vector ETV
attr interpolationmode none
attr source queueingTime(packetPopped)
attr title "queueing times, vector"
attr unit s
vector 487 scenario.client4.ppp[2].ppp txPk:vector(packetBytes) ETV
attr interpolationmode none
attr source packetSentToLower
attr title "packets transmitted, vector(packetBytes)"
vector 488 scenario.client2.ppp[3].ppp rxPkOk:vector(packetBytes) ETV
attr interpolationmode none
attr source rxPkOk
attr title "packets received OK, vector(packetBytes)"
vector 489 scenario.client2.ppp[3].ppp passedUpPk:vector(packetBytes) ETV
attr interpolationmode none
attr source packetSentToUpper
attr title "packets passed to higher layer, vector(packetBytes)"
vector 490 scenario.client2.tcp.conn-52 rcvAdv:vector ETV
attr interpolationmode sample-hold
vector 491 scenario.client2.tcp.conn-52 sndWnd:vector ETV
attr interpolationmode sample-hold
vector 492 scenario.client2.tcp.conn-52 tcpRcvQueueBytes:vector ETV
attr interpolationmode sample-hold
vector 493 scenario.client2.tcp.conn-52 rcvWnd:vector ETV
attr interpolationmode sample-hold
vector 494 scenario.client2.tcp.conn-52 sndAck:vector ETV
attr interpolationmode sample-hold
vector 495 scenario.client2.ppp[3].ppp rcvdPkFromHl:vector(packetBytes) ETV
attr interpolationmode none
attr source packetReceivedFromUpper
attr title "packets received from higher layer, vector(packetBytes)"
vector 496 scenario.client2.ppp[3].ppp.queue packetPushed:vector(packetBytes) ETV
attr interpolationmode none
attr title "packet pushed, vector(packetBytes)"
vector 497 scenario.client2.ppp[3].ppp.queue queueLength:vector ETV
attr interpolationmode sample-hold
attr source "count(packetPushed) - count(packetPopped) - count(packetRemoved) - count(packetDropped)"
attr title "queue length, vector"
vector 498 scenario.client2.ppp[3].ppp.queue packetPopped:vector(packetBytes) ETV
attr interpolationmode none
attr title "packet popped, vector(packetBytes)"
vector 499 scenario.client2.ppp[3].ppp.queue queueingTime:vector ETV
attr interpolationmode none
attr source queueingTime(packetPopped)
attr title "queueing times, vector"
attr unit s
vector 500 scenario.client2.ppp[3].ppp txPk:vector(packetBytes) ETV
attr interpolationmode none
attr source packetSentToLower
attr title "packets transmitted, vector(packetBytes)"
vector 501 scenario.client4.ppp[2].ppp rxPkOk:vector(packetBytes) ETV
attr interpolationmode none
attr source rxPkOk
attr title "packets received OK, vector(packetBytes)"
vector 502 scenario.client4.ppp[2].ppp passedUpPk:vector(packetBytes) ETV
attr interpolationmode none
attr source packetSentToUpper
attr title "packets passed to higher layer, vector(packetBytes)"
vector 503 scenario.client4.tcp.conn-51 rcvSeq:vector ETV
attr interpolationmode sample-hold
vector 504 scenario.client4.tcp.conn-51 rcvAck:vector ETV
attr interpolationmode sample-hold
vector 505 scenario.client4.tcp.conn-51 sndWnd:vector ETV
attr interpolationmode sample-hold
vector 506 scenario.client4.tcp.conn-51 unacked:vector ETV
attr interpolationmode sample-hold
vector 507 scenario.client2.tcp.conn-52 rcvSeq:vector ETV
attr interpolationmode sample-hold
vector 508 scenario.client2.tcp.conn-52 rcvAck:vector ETV
attr interpolationmode sample-hold
vector 509 scenario.client2.tcp.conn-52 unacked:vector ETV
attr interpolationmode sample-hold
vector 510 scenario.client2.tcp.conn-52 cwnd:vector ETV
attr interpolationmode sample-hold
vector 511 scenario.client2.tcp.conn-52 ssthresh:vector ETV
attr interpolationmode sample-hold
vector 512 scenario.client2.tcp.conn-52 dupAcks:vector ETV
attr interpolationmode sample-hold
vector 513 scenario.client4.tcp.conn-51 rtt:vector ETV
attr interpolationmode sample-hold
vector 514 scenario.client4.tcp.conn-51 srtt:vector ETV
attr interpolationmode sample-hold
vector 515 scenario.client4.tcp.conn-51 rttvar:vector ETV
attr interpolationmode sample-hold
vector 516 scenario.client4.tcp.conn-51 rto:vector ETV
attr interpolationmode sample-hold
vector 517 scenario.client4.tcp.conn-51 cwnd:vector ETV
attr interpolationmode sample-hold
vector 518 scenario.client4.tcp.conn-51 ssthresh:vector ETV
attr interpolationmode sample-hold
vector 519 scenario.client4.tcp.conn-51 dupAcks:vector ETV
attr interpolationmode sample-hold
vector 520 scenario.client2.tcp.conn-53 tcpRcvQueueBytes:vector ETV
attr interpolationmode sample-hold
vector 521 scenario.client2.tcp.conn-53 rcvAdv:vector ETV
attr interpolationmode sample-hold
vector 522 scenario.client2.tcp.conn-53 rcvWnd:vector ETV
attr interpolationmode sample-hold
vector 523 scenario.client2.tcp.conn-53 sndAck:vector ETV
attr interpolationmode sample-hold
vector 524 scenario.client4.tcp.conn-4 rcvSeq:vector ETV
attr interpolationmode sample-hold
vector 525 scenario.client4.tcp.conn-4 rcvAck:vector ETV
attr interpolationmode sample-hold
vector 526 scenario.client4.tcp.conn-54 rcvAdv:vector ETV
attr interpolationmode sample-hold
vector 527 scenario.client4.tcp.conn-54 sndWnd:vector ETV
attr interpolationmode sample-hold
vector 528 scenario.client4.tcp.conn-54 tcpRcvQueueBytes:vector ETV
attr interpolationmode sample-hold
vector 529 scenario.client4.tcp.conn-54 rcvWnd:vector ETV
attr interpolationmode sample-hold
vector 530 scenario.client4.tcp.conn-54 sndAck:vector ETV
attr interpolationmode sample-hold
vector 531 scenario.client2.tcp.conn-53 rcvSeq:vector ETV
attr interpolationmode sample-hold
vector 532 scenario.client2.tcp.conn-53 rcvAck:vector ETV
attr interpolationmode sample-hold
vector 533 scenario.client2.tcp.conn-53 sndWnd:vector ETV
attr interpolationmode sample-hold
vector 534 scenario.client2.tcp.conn-53 unacked:vector ETV
attr interpolationmode sample-hold
vector 535 scenario.client4.tcp.conn-54 rcvSeq:vector ETV
attr interpolationmode sample-hold
vector 536 scenario.client4.tcp.conn-54 rcvAck:vector ETV
attr interpolationmode sample-hold
vector 537 scenario.client4.tcp.conn-54 unacked:vector ETV
attr interpolationmode sample-hold
vector 538 scenario.client4.tcp.conn-54 cwnd:vector ETV
attr interpolationmode sample-hold
vector 539 scenario.client4.tcp.conn-54 ssthresh:vector ETV
attr interpolationmode sample-hold
vector 540 scenario.client4.tcp.conn-54 dupAcks:vector ETV
attr interpolationmode sample-hold
vector 541 scenario.client2.tcp.conn-53 rtt:vector ETV
attr interpolationmode sample-hold
vector 542 scenario.client2.tcp.conn-53 srtt:vector ETV
attr interpolationmode sample-hold
vector 543 scenario.client2.tcp.conn-53 rttvar:vector ETV
attr interpolationmode sample-hold
vector 544 scenario.client2.tcp.conn-53 rto:vector ETV
attr interpolationmode sample-hold
vector 545 scenario.client2.tcp.conn-53 cwnd:vector ETV
attr interpolationmode sample-hold
vector 546 scenario.client2.tcp.conn-53 ssthresh:vector ETV
attr interpolationmode sample-hold
vector 547 scenario.client2.tcp.conn-53 dupAcks:vector ETV
attr interpolationmode sample-hold
vector 548 scenario.client4.tcp.conn-55 tcpRcvQueueBytes:vector ETV
attr interpolationmode sample-hold
vector 549 scenario.client4.tcp.conn-55 rcvAdv:vector ETV
attr interpolationmode sample-hold
vector 550 scenario.client4.tcp.conn-55 rcvWnd:vector ETV
attr interpolationmode sample-hold
vector 551 scenario.client4.tcp.conn-55 sndAck:vector ETV
attr interpolationmode sample-hold
vector 552 scenario.client4.ppp[0].ppp rcvdPkFromHl:vector(packetBytes) ETV
attr interpolationmode none
attr source packetReceivedFromUpper
attr title "packets received from higher layer, vector(packetBytes)"
vector 553 scenario.client4.ppp[0].ppp.queue packetPushed:vector(packetBytes) ETV
attr interpolationmode none
attr title "packet pushed, vector(packetBytes)"
vector 554 scenario.client4.ppp[0].ppp.queue queueLength:vector ETV
attr interpolationmode sample-hold
attr source "count(packetPushed) - count(packetPopped) - count(packetRemoved) - count(packetDropped)"
attr title "queue length, vector"
vector 555 scenario.client4.ppp[0].ppp.queue packetPopped:vector(packetBytes) ETV
attr interpolationmode none
attr title "packet popped, vector(packetBytes)"
vector 556 scenario.client4.ppp[0].ppp.queue queueingTime:vector ETV
attr interpolationmode none
attr source queueingTime(packetPopped)
attr title "queueing times, vector"
attr unit s
vector 557 scenario.client4.ppp[0].ppp txPk:vector(packetBytes) ETV
attr interpolationmode none
attr source packetSentToLower
attr title "packets transmitted, vector(packetBytes)"
vector 558 scenario.client0.ppp[3].ppp rxPkOk:vector(packetBytes) ETV
attr interpolationmode none
attr source rxPkOk
attr title "packets received OK, vector(packetBytes)"
vector 559 scenario.client0.ppp[3].ppp passedUpPk:vector(packetBytes) ETV
attr interpolationmode none
attr source packetSentToUpper
attr title "packets passed to higher layer, vector(packetBytes)"
vector 560 scenario.client0.tcp.conn-56 rcvAdv:vector ETV
attr interpolationmode sample-hold
vector 561 scenario.client0.tcp.conn-56 sndWnd:vector ETV
attr interpolationmode sample-hold
vector 562 scenario.client0.tcp.conn-56 tcpRcvQueueBytes:vector ETV
attr interpolationmode sample-hold
vector 563 scenario.client0.tcp.conn-56 rcvWnd:vector ETV
attr interpolationmode sample-hold
vector 564 scenario.client0.tcp.conn-56 sndAck:vector ETV
attr interpolationmode sample-hold
vector 565 scenario.client0.ppp[3].ppp rcvdPkFromHl:vector(packetBytes) ETV
attr interpolationmode none
attr source packetReceivedFromUpper
attr title "packets received from higher layer, vector(packetBytes)"
vector 566 scenario.client0.ppp[3].ppp.queue packetPushed:vector(packetBytes) ETV
attr interpolationmode none
attr title "packet pushed, vector(packetBytes)"
vector 567 scenario.client0.ppp[3].ppp.queue queueLength:vector ETV
attr interpolationmode sample-hold
attr source "count(packetPushed) - count(packetPopped) - count(packetRemoved) - count(packetDropped)"
attr title "queue length, vector"
vector 568 scenario.client0.ppp[3].ppp.queue packetPopped:vector(packetBytes) ETV
attr interpolationmode none
attr title "packet popped, vector(packetBytes)"
vector 569 scenario.client0.ppp[3].ppp.queue queueingTime:vector ETV
attr interpolationmode none
attr source queueingTime(packetPopped)
attr title "queueing times, vector"
attr unit s
vector 570 scenario.client0.ppp[3].ppp txPk:vector(packetBytes) ETV
attr interpolationmode none
attr source packetSentToLower
attr title "packets transmitted, vector(packetBytes)"
vector 571 scenario.client4.ppp[0].ppp rxPkOk:vector(packetBytes) ETV
attr interpolationmode none
attr source rxPkOk
attr title "packets received OK, vector(packetBytes)"
vector 572 scenario.client4.ppp[0].ppp passedUpPk:vector(packetBytes) ETV
attr interpolationmode none
attr source packetSentToUpper
attr title "packets passed to higher layer, vector(packetBytes)"
vector 573 scenario.client4.tcp.conn-55 rcvSeq:vector ETV
attr interpolationmode sample-hold
vector 574 scenario.client4.tcp.conn-55 rcvAck:vector ETV
attr interpolationmode sample-hold
vector 575 scenario.client4.tcp.conn-55 sndWnd:vector ETV
attr interpolationmode sample-hold
vector 576 scenario.client4.tcp.conn-55 unacked:vector ETV
attr interpolationmode sample-hold
vector 577 scenario.client0.tcp.conn-56 rcvSeq:vector ETV
attr interpolationmode sample-hold
vector 578 scenario.client0.tcp.conn-56 rcvAck:vector ETV
attr interpolationmode sample-hold
vector 579 scenario.client0.tcp.conn-56 unacked:vector ETV
attr interpolationmode sample-hold
vector 580 scenario.client0.tcp.conn-56 cwnd:vector ETV
attr interpolationmode sample-hold
vector 581 scenario.client0.tcp.conn-56 ssthresh:vector ETV
attr interpolationmode sample-hold
vector 582 scenario.client0.tcp.conn-56 dupAcks:vector ETV
attr interpolationmode sample-hold
vector 583 scenario.client4.tcp.conn-55 rtt:vector ETV
attr interpolationmode sample-hold
vector 584 scenario.client4.tcp.conn-55 srtt:vector ETV
attr interpolationmode sample-hold
vector 585 scenario.client4.tcp.conn-55 rttvar:vector ETV
attr interpolationmode sample-hold
vector 586 scenario.client4.tcp.conn-55 rto:vector ETV
attr interpolationmode sample-hold
vector 587 scenario.client4.tcp.conn-55 cwnd:vector ETV
attr interpolationmode sample-hold
vector 588 scenario.client4.tcp.conn-55 ssthresh:vector ETV
attr interpolationmode sample-hold
vector 589 scenario.client4.tcp.conn-55 dupAcks:vector ETV
attr interpolationmode sample-hold
vector 590 scenario.client1.tcp.conn-57 tcpRcvQueueBytes:vector ETV
attr interpolationmode sample-hold
vector 591 scenario.client1.tcp.conn-57 rcvAdv:vector ETV
attr interpolationmode sample-hold
vector 592 scenario.client1.tcp.conn-57 rcvWnd:vector ETV
attr interpolationmode sample-hold
vector 593 scenario.client1.tcp.conn-57 sndAck:vector ETV
attr interpolationmode sample-hold
vector 594 scenario.client4.tcp.conn-58 rcvAdv:vector ETV
attr interpolationmode sample-hold
vector 595 scenario.client4.tcp.conn-58 sndWnd:vector ETV
attr interpolationmode sample-hold
vector 596 scenario.client4.tcp.conn-58 tcpRcvQueueBytes:vector ETV
attr interpolationmode sample-hold
vector 597 scenario.client4.tcp.conn-58 rcvWnd:vector ETV
attr interpolationmode sample-hold
vector 598 scenario.client4.tcp.conn-58 sndAck:vector ETV
attr interpolationmode sample-hold
vector 599 scenario.client1.tcp.conn-57 rcvSeq:vector ETV
attr interpolationmode sample-hold
vector 600 scenario.client1.tcp.conn-57 rcvAck:vector ETV
attr interpolationmode sample-hold
vector 601 scenario.client1.tcp.conn-57 sndWnd:vector ETV
attr interpolationmode sample-hold
vector 602 scenario.client1.tcp.conn-57 unacked:vector ETV
attr interpolationmode sample-hold
vector 603 scenario.client4.tcp.conn-58 rcvSeq:vector ETV
attr interpolationmode sample-hold
vector 604 scenario.client4.tcp.conn-58 rcvAck:vector ETV
attr interpolationmode sample-hold
vector 605 scenario.client4.tcp.conn-58 unacked:vector ETV
attr interpolationmode sample-hold
vector 606 scenario.client4.tcp.conn-58 cwnd:vector ETV
attr interpolationmode sample-hold
vector 607 scenario.client4.tcp.conn-58 ssthresh:vector ETV
attr interpolationmode sample-hold
vector 608 scenario.client4.tcp.conn-58 dupAcks:vector ETV
attr interpolationmode sample-hold
vector 609 scenario.client1.tcp.conn-57 rtt:vector ETV
attr interpolationmode sample-hold
vector 610 scenario.client1.tcp.conn-57 srtt:vector ETV
attr interpolationmode sample-hold
vector 611 scenario.client1.tcp.conn-57 rttvar:vector ETV
attr interpolationmode sample-hold
vector 612 scenario.client1.tcp.conn-57 rto:vector ETV
attr interpolationmode sample-hold
vector 613 scenario.client1.tcp.conn-57 cwnd:vector ETV
attr interpolationmode sample-hold
vector 614 scenario.client1.tcp.conn-57 ssthresh:vector ETV
attr interpolationmode sample-hold
vector 615 scenario.client1.tcp.conn-57 dupAcks:vector ETV
attr interpolationmode sample-hold
vector 616 scenario.client0.tcp.conn-59 tcpRcvQueueBytes:vector ETV
attr interpolationmode sample-hold
vector 617 scenario.client0.tcp.conn-59 rcvAdv:vector ETV
attr interpolationmode sample-hold
vector 618 scenario.client0.tcp.conn-59 rcvWnd:vector ETV
attr interpolationmode sample-hold
vector 619 scenario.client0.tcp.conn-59 sndAck:vector ETV
attr interpolationmode sample-hold
vector 620 scenario.client4.tcp.conn-60 rcvAdv:vector ETV
attr interpolationmode sample-hold
vector 621 scenario.client4.tcp.conn-60 sndWnd:vector ETV
attr interpolationmode sample-hold
vector 622 scenario.client4.tcp.conn-60 tcpRcvQueueBytes:vector ETV
attr interpolationmode sample-hold
vector 623 scenario.client4.tcp.conn-60 rcvWnd:vector ETV
attr interpolationmode sample-hold
vector 624 scenario.client4.tcp.conn-60 sndAck:vector ETV
attr interpolationmode sample-hold
vector 625 scenario.client0.tcp.conn-59 rcvSeq:vector ETV
attr interpolationmode sample-hold
vector 626 scenario.client0.tcp.conn-59 rcvAck:vector ETV
attr interpolationmode sample-hold
vector 627 scenario.client0.tcp.conn-59 sndWnd:vector ETV
attr interpolationmode sample-hold
vector 628 scenario.client0.tcp.conn-59 unacked:vector ETV
attr interpolationmode sample-hold
vector 629 scenario.client4.tcp.conn-60 rcvSeq:vector ETV
attr interpolationmode sample-hold
vector 630 scenario.client4.tcp.conn-60 rcvAck:vector ETV
attr interpolationmode sample-hold
vector 631 scenario.client4.tcp.conn-60 unacked:vector ETV
attr interpolationmode sample-hold
vector 632 scenario.client4.tcp.conn-60 cwnd:vector ETV
attr interpolationmode sample-hold
vector 633 scenario.client4.tcp.conn-60 ssthresh:vector ETV
attr interpolationmode sample-hold
vector 634 scenario.client4.tcp.conn-60 dupAcks:vector ETV
attr interpolationmode sample-hold
vector 635 scenario.client0.tcp.conn-59 rtt:vector ETV
attr interpolationmode sample-hold
vector 636 scenario.client0.tcp.conn-59 srtt:vector ETV
attr interpolationmode sample-hold
vector 637 scenario.client0.tcp.conn-59 rttvar:vector ETV
attr interpolationmode sample-hold
vector 638 scenario.client0.tcp.conn-59 rto:vector ETV
attr interpolationmode sample-hold
vector 639 scenario.client0.tcp.conn-59 cwnd:vector ETV
attr interpolationmode sample-hold
vector 640 scenario.client0.tcp.conn-59 ssthresh:vector ETV
attr interpolationmode sample-hold
vector 641 scenario.client0.tcp.conn-59 dupAcks:vector ETV
attr interpolationmode sample-hold
0	0	0	0
0	18	0.310915019257	1
0	19	0.311323019257	0
0	33	0.312707019257	1
0	36	0.313083019257	0
0	44	0.515166811121	1
0	45	0.515574811121	0
0	57	0.516982811121	1
0	58	0.517366811121	0
0	147	2.087097013093	1
0	148	2.087473013093	0
0	224	2.45069246144	1
0	225	2.45106846144	0
0	262	2.752888815821	1
0	263	2.753272815821	0
0	346	2.982050229927	1
0	347	2.982426229927	0
0	387	3.074401313151	1
0	389	3.074785313151	0
0	475	3.231600081912	1
0	476	3.231976081912	0
0	515	3.298191469588	1
0	516	3.298575469588	0
0	530	3.344518566973	1
0	531	3.344902566973	0
0	577	3.416755878903	1
0	578	3.417139878903	0
0	815	4.169587210059	1
0	816	4.169963210059	0
0	830	4.311251318095	1
0	831	4.311627318095	0
0	853	4.363288189703	1
0	854	4.363672189703	0
0	1033	4.99074874453	1
0	1034	4.99113274453	0
0	1096	5.097408861598	1
0	1097	5.097792861598	0
0	1197	5.268188367076	1
0	1198	5.268564367076	0
0	1306	5.778398882046	1
0	1307	5.778774882046	0
0	1336	5.812610131169	1
0	1337	5.812986131169	0
0	1398	6.067873165075	1
0	1399	6.068257165075	0
0	1428	6.103573600513	1
0	1429	6.103957600513	0
0	1540	6.369881224524	1
0	1541	6.370257224524	0
0	1570	6.466931121434	1
0	1571	6.467307121434	0
0	1615	6.57633894113	1
0	1616	6.57671494113	0
0	1638	6.620226631306	1
0	1639	6.620610631306	0
0	1668	6.710193123692	1
0	1669	6.710577123692	0
0	1728	6.793083468978	1
0	1729	6.793467468978	0
0	1788	6.844446120426	1
0	1791	6.844822120426	0
0	1825	6.855949524949	1
0	1826	6.856325524949	0
0	1833	6.869044039064	1
0	1834	6.869428039064	0
0	2061	6.987881041414	1
0	2062	6.988257041414	0
0	2076	7.004297925963	1
0	2077	7.004673925963	0
0	2136	7.066101017975	1
0	2137	7.066477017975	0
0	2166	7.087371382306	1
0	2167	7.087747382306	0
0	2241	7.151338178167	1
0	2242	7.151714178167	0
0	2271	7.168823210548	1
0	2272	7.169199210548	0
0	2279	7.174441726615	1
0	2280	7.174825726615	0
0	2359	7.206668235847	1
0	2366	7.207052235847	0
0	2399	7.235172523698	1
0	2400	7.235556523698	0
0	2414	7.264348218757	1
0	2415	7.264732218757	0
0	2455	7.277621696829	1
0	2461	7.278005696829	0
0	2528	7.279773696829	1
0	2529	7.280149696829	0
0	2593	7.293494432081	1
0	2595	7.293870432081	0
0	2689	7.326845979065	1
0	2699	7.327221979065	0
0	2815	7.384531145848	1
0	2816	7.384915145848	0
0	2860	7.430369947082	1
0	2861	7.430753947082	0
0	2888	7.431770688192	1
0	2896	7.432162688192	0
0	3043	7.485239116794	1
0	3044	7.485615116794	0
0	3066	7.495644891752	1
0	3067	7.496028891752	0
0	3223	7.541760433119	1
0	3224	7.542136433119	0
0	3295	7.554852873684	1
0	3299	7.555228873684	0
0	3448	7.595685602589	1
0	3449	7.596061602589	0
0	3516	7.618755522203	1
0	3517	7.619139522203	0
0	3628	7.651196697776	1
0	3629	7.651572697776	0
0	3636	7.654283214332	1
0	3641	7.654667214332	0
0	3641	7.654667214332	1
0	3642	7.655051214332	0
0	3711	7.674453875545	1
0	3712	7.674837875545	0
0	3771	7.702591941283	1
0	3772	7.702975941283	0
0	3836	7.711686457106	1
0	3843	7.712070457106	0
0	3872	7.716937714286	1
0	3874	7.717321714286	0
0	3928	7.738697411542	1
0	3929	7.739073411542	0
0	3951	7.745214595172	1
0	3952	7.745598595172	0
0	3966	7.747518297555	1
0	3967	7.747902297555	0
0	4022	7.756001406416	1
[...]
461	1077	5.004552592303	1250472
461	5898	8.082084716941	1250472
462	1060	5.002792592303	1250245
462	1077	5.004552592303	1250246
462	5898	8.082084716941	1250247
463	1060	5.002792592303	7504
463	1077	5.004552592303	7503
463	5898	8.082084716941	7504
464	1060	5.002792592303	1
464	1077	5.004552592303	0
464	5871	8.080324716941	1
464	5898	8.082084716941	0
465	1067	5.003676592303	1250245
465	5888	8.081208716941	1250246
466	1067	5.003676592303	1250472
466	5888	8.081208716941	1250472
467	1067	5.003676592303	0
468	1067	5.003676592303	1072
469	1067	5.003676592303	4294967295
470	1067	5.003676592303	0
470	5888	8.081208716941	0
471	1077	5.004552592303	0.00176
471	5898	8.082084716941	0.00176
472	1077	5.004552592303	0.00022
472	5898	8.082084716941	0.0004125
473	1077	5.004552592303	0.65647
473	5898	8.082084716941	0.57460375
474	1077	5.004552592303	2.6261
474	5898	8.082084716941	2.2988275
475	1077	5.004552592303	1072
475	5898	8.082084716941	1072
476	1077	5.004552592303	4294967295
476	5898	8.082084716941	4294967295
477	1077	5.004552592303	0
477	5898	8.082084716941	0
478	1109	5.148869289224	0
478	1122	5.150685289224	0
478	7145	8.241279335917	0
479	1109	5.148869289224	7504
479	1122	5.150685289224	1294949
479	1122	5.150685289224	1294949
479	7145	8.241279335917	1294949
480	1109	5.148869289224	7504
480	1122	5.150685289224	7504
480	7145	8.241279335917	7504
481	1109	5.148869289224	0
481	1122	5.150685289224	1287445
481	7145	8.241279335917	1287445
482	1112	5.148869289224	44
482	1125	5.150685289224	41
482	1150	5.157879065401	44
482	1165	5.159671065401	40
482	2007	6.96716282638	40
482	3703	7.671218913541	40
482	7147	8.241279335917	41
483	1112	5.148869289224	44
483	1125	5.150685289224	41
483	1150	5.157879065401	44
483	1165	5.159671065401	40
483	2007	6.96716282638	40
483	3703	7.671218913541	40
483	7147	8.241279335917	41
484	1112	5.148869289224	1
484	1112	5.148869289224	0
484	1125	5.150685289224	1
484	1125	5.150685289224	0
484	1150	5.157879065401	1
484	1150	5.157879065401	0
484	1165	5.159671065401	1
484	1165	5.159671065401	0
484	2007	6.96716282638	1
484	2007	6.96716282638	0
484	3703	7.671218913541	1
484	3703	7.671218913541	0
484	7147	8.241279335917	1
484	7147	8.241279335917	0
485	1112	5.148869289224	44
485	1125	5.150685289224	41
485	1150	5.157879065401	44
485	1165	5.159671065401	40
485	2007	6.96716282638	40
485	3703	7.671218913541	40
485	7147	8.241279335917	41
486	1112	5.148869289224	0
486	1125	5.150685289224	0
486	1150	5.157879065401	0
486	1165	5.159671065401	0
486	2007	6.96716282638	0
486	3703	7.671218913541	0
486	7147	8.241279335917	0
487	1112	5.148869289224	51
487	1125	5.150685289224	48
487	1150	5.157879065401	51
487	1165	5.159671065401	47
487	2007	6.96716282638	47
487	3703	7.671218913541	47
487	7147	8.241279335917	48
488	1114	5.149777289224	51
488	1127	5.151569289224	48
488	1152	5.158787065401	51
488	1169	5.160547065401	47
488	2025	6.96803882638	47
488	3705	7.672094913541	47
488	7153	8.242163335917	48
489	1114	5.149777289224	44
489	1127	5.151569289224	41
489	1152	5.158787065401	44
489	1169	5.160547065401	40
489	2025	6.96803882638	40
489	3705	7.672094913541	40
489	7153	8.242163335917	41
490	1116	5.149777289224	1294722
490	1116	5.149777289224	1294722
490	1129	5.151569289224	1294722
490	7155	8.242163335917	1294724
491	1116	5.149777289224	7504
491	1129	5.151569289224	7504
492	1116	5.149777289224	0
492	1129	5.151569289224	0
492	1129	5.151569289224	1
492	7155	8.242163335917	0
492	7155	8.242163335917	0
493	1116	5.149777289224	7504
493	1129	5.151569289224	7503
493	7155	8.242163335917	7504
494	1116	5.149777289224	1287218
494	1129	5.151569289224	1287219
494	7155	8.242163335917	1287220
495	1118	5.149777289224	44
495	1133	5.151569289224	40
495	1144	5.156971065401	44
495	1157	5.158787065401	41
495	1983	6.96627082638	42
495	3696	7.670334913541	41
495	7158	8.242163335917	40
496	1118	5.149777289224	44
496	1133	5.151569289224	40
496	1144	5.156971065401	44
496	1157	5.158787065401	41
496	1983	6.96627082638	42
496	3696	7.670334913541	41
496	7158	8.242163335917	40
497	1118	5.149777289224	1
497	1118	5.149777289224	0
497	1133	5.151569289224	1
497	1133	5.151569289224	0
497	1144	5.156971065401	1
497	1144	5.156971065401	0
497	1157	5.158787065401	1
497	1157	5.158787065401	0
497	1983	6.96627082638	1
497	1983	6.96627082638	0
497	3696	7.670334913541	1
497	3696	7.670334913541	0
497	7158	8.242163335917	1
497	7158	8.242163335917	0
498	1118	5.149777289224	44
498	1133	5.151569289224	40
498	1144	5.156971065401	44
498	1157	5.158787065401	41
498	1983	6.96627082638	42
498	3696	7.670334913541	41
498	7158	8.242163335917	40
499	1118	5.149777289224	0
499	1133	5.151569289224	0
499	1144	5.156971065401	0
499	1157	5.158787065401	0
499	1983	6.96627082638	0
499	3696	7.670334913541	0
499	7158	8.242163335917	0
500	1118	5.149777289224	51
500	1133	5.151569289224	47
500	1144	5.156971065401	51
500	1157	5.158787065401	48
500	1983	6.96627082638	49
500	3696	7.670334913541	48
500	7158	8.242163335917	47
501	1120	5.150685289224	51
501	1137	5.152445289224	47
501	1146	5.157879065401	51
501	1159	5.159671065401	48
501	1997	6.96716282638	49
501	3698	7.671218913541	48
501	7171	8.243039335917	47
502	1120	5.150685289224	44
502	1137	5.152445289224	40
502	1146	5.157879065401	44
502	1159	5.159671065401	41
502	1997	6.96716282638	42
502	3698	7.671218913541	41
502	7171	8.243039335917	40
503	1122	5.150685289224	1287444
503	1139	5.152445289224	1287445
503	7173	8.243039335917	1287445
504	1122	5.150685289224	1287218
504	1139	5.152445289224	1287219
504	7173	8.243039335917	1287220
505	1122	5.150685289224	7504
505	1139	5.152445289224	7503
505	7173	8.243039335917	7504
506	1122	5.150685289224	1
506	1139	5.152445289224	0
506	7145	8.241279335917	1
506	7173	8.243039335917	0
507	1129	5.151569289224	1287218
507	7155	8.242163335917	1287219
508	1129	5.151569289224	1287445
508	7155	8.242163335917	1287445
509	1129	5.151569289224	0
510	1129	5.151569289224	1072
511	1129	5.151569289224	4294967295
512	1129	5.151569289224	0
512	7155	8.242163335917	0
513	1139	5.152445289224	0.00176
513	7173	8.243039335917	0.00176
514	1139	5.152445289224	0.00022
514	7173	8.243039335917	0.0004125
515	1139	5.152445289224	0.65647
515	7173	8.243039335917	0.57460375
516	1139	5.152445289224	2.6261
516	7173	8.243039335917	2.2988275
517	1139	5.152445289224	1072
517	7173	8.243039335917	1072
518	1139	5.152445289224	4294967295
518	7173	8.243039335917	4294967295
519	1139	5.152445289224	0
519	7173	8.243039335917	0
520	1141	5.156971065401	0
520	1154	5.158787065401	0
520	1974	6.96627082638	0
520	3694	7.670334913541	0
521	1141	5.156971065401	7504
521	1154	5.158787065401	1296974
521	1154	5.158787065401	1296974
521	1974	6.96627082638	1296974
521	3694	7.670334913541	1296974
522	1141	5.156971065401	7504
522	1154	5.158787065401	7504
522	1974	6.96627082638	7504
522	3694	7.670334913541	7504
523	1141	5.156971065401	0
523	1154	5.158787065401	1289470
523	1974	6.96627082638	1289470
523	3694	7.670334913541	1289470
524	1148	5.157879065401	1289242
524	1257	5.513969033967	1378265
524	1364	5.994208299081	1498325
525	1148	5.157879065401	0
525	1257	5.513969033967	0
525	1364	5.994208299081	0
526	1148	5.157879065401	1296747
526	1148	5.157879065401	1296747
526	1161	5.159671065401	1296747
526	2001	6.96716282638	1296750
526	3700	7.671218913541	1296751
527	1148	5.157879065401	7504
527	1161	5.159671065401	7504
528	1148	5.157879065401	0
528	1161	5.159671065401	0
528	1161	5.159671065401	1
528	2001	6.96716282638	0
528	2001	6.96716282638	0
528	3700	7.671218913541	0
528	3700	7.671218913541	0
529	1148	5.157879065401	7504
529	1161	5.159671065401	7503
529	2001	6.96716282638	7504
529	3700	7.671218913541	7504
530	1148	5.157879065401	1289243
530	1161	5.159671065401	1289244
530	2001	6.96716282638	1289246
530	3700	7.671218913541	1289247
531	1154	5.158787065401	1289469
531	1171	5.160547065401	1289470
531	2029	6.96803882638	1289470
531	3707	7.672094913541	1289470
532	1154	5.158787065401	1289243
532	1171	5.160547065401	1289244
532	2029	6.96803882638	1289246
532	3707	7.672094913541	1289247
533	1154	5.158787065401	7504
533	1171	5.160547065401	7503
533	2029	6.96803882638	7504
533	3707	7.672094913541	7504
534	1154	5.158787065401	1
534	1171	5.160547065401	0
534	1974	6.96627082638	2
534	2029	6.96803882638	0
534	3694	7.670334913541	1
534	3707	7.672094913541	0
535	1161	5.159671065401	1289243
535	2001	6.96716282638	1289244
535	3700	7.671218913541	1289246
536	1161	5.159671065401	1289470
536	2001	6.96716282638	1289470
536	3700	7.671218913541	1289470
537	1161	5.159671065401	0
538	1161	5.159671065401	1072
539	1161	5.159671065401	4294967295
540	1161	5.159671065401	0
540	2001	6.96716282638	0
540	3700	7.671218913541	0
541	1171	5.160547065401	0.00176
541	2029	6.96803882638	0.001768
541	3707	7.672094913541	0.00176
542	1171	5.160547065401	0.00022
542	2029	6.96803882638	0.0004135
542	3707	7.672094913541	0.0005818125
543	1171	5.160547065401	0.65647
543	2029	6.96803882638	0.57460475
543	3707	7.672094913541	0.50294746875
544	1171	5.160547065401	2.6261
544	2029	6.96803882638	2.2988325
544	3707	7.672094913541	2.0123716875
545	1171	5.160547065401	1072
545	2029	6.96803882638	1608
545	3707	7.672094913541	2144
546	1171	5.160547065401	4294967295
546	2029	6.96803882638	4294967295
546	3707	7.672094913541	4294967295
547	1171	5.160547065401	0
547	2029	6.96803882638	0
547	3707	7.672094913541	0
548	1203	5.311990722373	0
548	1216	5.313806722373	0
548	5286	8.010437330241	0
549	1203	5.311990722373	7504
549	1216	5.313806722373	1335729
549	1216	5.313806722373	1335729
549	5286	8.010437330241	1335729
550	1203	5.311990722373	7504
550	1216	5.313806722373	7504
550	5286	8.010437330241	7504
551	1203	5.311990722373	0
551	1216	5.313806722373	1328225
551	5286	8.010437330241	1328225
552	1206	5.311990722373	44
552	1219	5.313806722373	41
552	1366	5.994208299081	44
552	1381	5.996000299081	40
552	1930	6.937949649587	40
552	2920	7.432662688192	40
552	5288	8.010437330241	41
553	1206	5.311990722373	44
553	1219	5.313806722373	41
553	1366	5.994208299081	44
553	1381	5.996000299081	40
553	1930	6.937949649587	40
553	2920	7.432662688192	40
553	5288	8.010437330241	41
554	1206	5.311990722373	1
554	1206	5.311990722373	0
554	1219	5.313806722373	1
554	1219	5.313806722373	0
554	1366	5.994208299081	1
554	1366	5.994208299081	0
554	1381	5.996000299081	1
554	1381	5.996000299081	0
554	1930	6.937949649587	1
554	1930	6.937949649587	0
554	2920	7.432662688192	1
554	2920	7.432662688192	0
554	5288	8.010437330241	1
554	5288	8.010437330241	0
555	1206	5.311990722373	44
555	1219	5.313806722373	41
555	1366	5.994208299081	44
555	1381	5.996000299081	40
555	1930	6.937949649587	40
555	2920	7.432662688192	40
555	5288	8.010437330241	41
556	1206	5.311990722373	0
556	1219	5.313806722373	0
556	1366	5.994208299081	0
556	1381	5.996000299081	0
556	1930	6.937949649587	0
556	2920	7.432662688192	0
556	5288	8.010437330241	0
557	1206	5.311990722373	51
557	1219	5.313806722373	48
557	1366	5.994208299081	51
557	1381	5.996000299081	47
557	1930	6.937949649587	47
557	2920	7.432662688192	47
557	5288	8.010437330241	48
558	1208	5.312898722373	51
558	1221	5.314690722373	48
558	1368	5.995116299081	51
558	1385	5.996876299081	47
558	1932	6.938825649587	47
558	2933	7.433538688192	47
558	5301	8.011321330241	48
559	1208	5.312898722373	44
559	1221	5.314690722373	41
559	1368	5.995116299081	44
559	1385	5.996876299081	40
559	1932	6.938825649587	40
559	2933	7.433538688192	40
559	5301	8.011321330241	41
560	1210	5.312898722373	1335502
560	1210	5.312898722373	1335502
560	1223	5.314690722373	1335502
560	5303	8.011321330241	1335504
561	1210	5.312898722373	7504
561	1223	5.314690722373	7504
562	1210	5.312898722373	0
562	1223	5.314690722373	0
562	1223	5.314690722373	1
562	5303	8.011321330241	0
562	5303	8.011321330241	0
563	1210	5.312898722373	7504
563	1223	5.314690722373	7503
563	5303	8.011321330241	7504
564	1210	5.312898722373	1327998
564	1223	5.314690722373	1327999
564	5303	8.011321330241	1328000
565	1212	5.312898722373	44
565	1227	5.314690722373	40
565	1360	5.993300299081	44
565	1373	5.995116299081	41
565	1923	6.937065649587	41
565	2891	7.431770688192	42
565	5306	8.011321330241	40
566	1212	5.312898722373	44
566	1227	5.314690722373	40
566	1360	5.993300299081	44
566	1373	5.995116299081	41
566	1923	6.937065649587	41
566	2891	7.431770688192	42
566	5306	8.011321330241	40
567	1212	5.312898722373	1
567	1212	5.312898722373	0
567	1227	5.314690722373	1
567	1227	5.314690722373	0
567	1360	5.993300299081	1
567	1360	5.993300299081	0
567	1373	5.995116299081	1
567	1373	5.995116299081	0
567	1923	6.937065649587	1
567	1923	6.937065649587	0
567	2891	7.431770688192	1
567	2891	7.431770688192	0
567	5306	8.011321330241	1
567	5306	8.011321330241	0
568	1212	5.312898722373	44
568	1227	5.314690722373	40
568	1360	5.993300299081	44
568	1373	5.995116299081	41
568	1923	6.937065649587	41
568	2891	7.431770688192	42
568	5306	8.011321330241	40
569	1212	5.312898722373	0
569	1227	5.314690722373	0
569	1360	5.993300299081	0
569	1373	5.995116299081	0
569	1923	6.937065649587	0
569	2891	7.431770688192	0
569	5306	8.011321330241	0
570	1212	5.312898722373	51
570	1227	5.314690722373	47
570	1360	5.993300299081	51
570	1373	5.995116299081	48
570	1923	6.937065649587	48
570	2891	7.431770688192	49
570	5306	8.011321330241	47
571	1214	5.313806722373	51
571	1231	5.315566722373	47
571	1362	5.994208299081	51
571	1375	5.996000299081	48
571	1925	6.937949649587	48
571	2905	7.432662688192	49
571	5311	8.012197330241	47
572	1214	5.313806722373	44
572	1231	5.315566722373	40
572	1362	5.994208299081	44
572	1375	5.996000299081	41
572	1925	6.937949649587	41
572	2905	7.432662688192	42
572	5311	8.012197330241	40
573	1216	5.313806722373	1328224
573	1233	5.315566722373	1328225
573	5313	8.012197330241	1328225
574	1216	5.313806722373	1327998
574	1233	5.315566722373	1327999
574	5313	8.012197330241	1328000
575	1216	5.313806722373	7504
575	1233	5.315566722373	7503
575	5313	8.012197330241	7504
576	1216	5.313806722373	1
576	1233	5.315566722373	0
576	5286	8.010437330241	1
576	5313	8.012197330241	0
577	1223	5.314690722373	1327998
577	5303	8.011321330241	1327999
578	1223	5.314690722373	1328225
578	5303	8.011321330241	1328225
579	1223	5.314690722373	0
580	1223	5.314690722373	1072
581	1223	5.314690722373	4294967295
582	1223	5.314690722373	0
582	5303	8.011321330241	0
583	1233	5.315566722373	0.00176
583	5313	8.012197330241	0.00176
584	1233	5.315566722373	0.00022
584	5313	8.012197330241	0.0004125
585	1233	5.315566722373	0.65647
585	5313	8.012197330241	0.57460375
586	1233	5.315566722373	2.6261
586	5313	8.012197330241	2.2988275
587	1233	5.315566722373	1072
587	5313	8.012197330241	1072
588	1233	5.315566722373	4294967295
588	5313	8.012197330241	4294967295
589	1233	5.315566722373	0
589	5313	8.012197330241	0
590	1250	5.513061033967	0
590	1263	5.514877033967	0
590	2474	7.278505696829	0
590	4249	7.792102729576	0
591	1250	5.513061033967	7504
591	1263	5.514877033967	1385997
591	1263	5.514877033967	1385997
591	2474	7.278505696829	1385997
591	4249	7.792102729576	1385997
592	1250	5.513061033967	7504
592	1263	5.514877033967	7504
592	2474	7.278505696829	7504
592	4249	7.792102729576	7504
593	1250	5.513061033967	0
593	1263	5.514877033967	1378493
593	2474	7.278505696829	1378493
593	4249	7.792102729576	1378493
594	1257	5.513969033967	1385770
594	1257	5.513969033967	1385770
594	1270	5.515761033967	1385770
594	2507	7.279397696829	1385773
594	4255	7.792986729576	1385774
595	1257	5.513969033967	7504
595	1270	5.515761033967	7504
596	1257	5.513969033967	0
596	1270	5.515761033967	0
596	1270	5.515761033967	1
596	2507	7.279397696829	0
596	2507	7.279397696829	0
596	4255	7.792986729576	0
596	4255	7.792986729576	0
597	1257	5.513969033967	7504
597	1270	5.515761033967	7503
597	2507	7.279397696829	7504
597	4255	7.792986729576	7504
598	1257	5.513969033967	1378266
598	1270	5.515761033967	1378267
598	2507	7.279397696829	1378269
598	4255	7.792986729576	1378270
599	1263	5.514877033967	1378492
599	1280	5.516637033967	1378493
599	2538	7.280273696829	1378493
599	4262	7.793862729576	1378493
600	1263	5.514877033967	1378266
600	1280	5.516637033967	1378267
600	2538	7.280273696829	1378269
600	4262	7.793862729576	1378270
601	1263	5.514877033967	7504
601	1280	5.516637033967	7503
601	2538	7.280273696829	7504
601	4262	7.793862729576	7504
602	1263	5.514877033967	1
602	1280	5.516637033967	0
602	2474	7.278505696829	2
602	2538	7.280273696829	0
602	4249	7.792102729576	1
602	4262	7.793862729576	0
603	1270	5.515761033967	1378266
603	2507	7.279397696829	1378267
603	4255	7.792986729576	1378269
604	1270	5.515761033967	1378493
604	2507	7.279397696829	1378493
604	4255	7.792986729576	1378493
605	1270	5.515761033967	0
606	1270	5.515761033967	1072
607	1270	5.515761033967	4294967295
608	1270	5.515761033967	0
608	2507	7.279397696829	0
608	4255	7.792986729576	0
609	1280	5.516637033967	0.00176
609	2538	7.280273696829	0.001768
609	4262	7.793862729576	0.00176
610	1280	5.516637033967	0.00022
610	2538	7.280273696829	0.0004135
610	4262	7.793862729576	0.0005818125
611	1280	5.516637033967	0.65647
611	2538	7.280273696829	0.57460475
611	4262	7.793862729576	0.50294746875
612	1280	5.516637033967	2.6261
612	2538	7.280273696829	2.2988325
612	4262	7.793862729576	2.0123716875
613	1280	5.516637033967	1072
613	2538	7.280273696829	1608
613	4262	7.793862729576	2144
614	1280	5.516637033967	4294967295
614	2538	7.280273696829	4294967295
614	4262	7.793862729576	4294967295
615	1280	5.516637033967	0
615	2538	7.280273696829	0
615	4262	7.793862729576	0
616	1357	5.993300299081	0
616	1370	5.995116299081	0
616	1921	6.937065649587	0
616	2882	7.431770688192	0
617	1357	5.993300299081	7504
617	1370	5.995116299081	1506057
617	1370	5.995116299081	1506057
617	1921	6.937065649587	1506057
617	2882	7.431770688192	1506057
618	1357	5.993300299081	7504
618	1370	5.995116299081	7504
618	1921	6.937065649587	7504
618	2882	7.431770688192	7504
619	1357	5.993300299081	0
619	1370	5.995116299081	1498553
619	1921	6.937065649587	1498553
619	2882	7.431770688192	1498553
620	1364	5.994208299081	1505830
620	1364	5.994208299081	1505830
620	1377	5.996000299081	1505830
620	1927	6.937949649587	1505832
620	2911	7.432662688192	1505834
621	1364	5.994208299081	7504
621	1377	5.996000299081	7504
622	1364	5.994208299081	0
622	1377	5.996000299081	0
622	1377	5.996000299081	1
622	1927	6.937949649587	0
622	1927	6.937949649587	0
622	2911	7.432662688192	0
622	2911	7.432662688192	0
623	1364	5.994208299081	7504
623	1377	5.996000299081	7503
623	1927	6.937949649587	7504
623	2911	7.432662688192	7504
624	1364	5.994208299081	1498326
624	1377	5.996000299081	1498327
624	1927	6.937949649587	1498328
624	2911	7.432662688192	1498330
625	1370	5.995116299081	1498552
625	1387	5.996876299081	1498553
625	1934	6.938825649587	1498553
625	2939	7.433538688192	1498553
626	1370	5.995116299081	1498326
626	1387	5.996876299081	1498327
626	1934	6.938825649587	1498328
626	2939	7.433538688192	1498330
627	1370	5.995116299081	7504
627	1387	5.996876299081	7503
627	1934	6.938825649587	7504
627	2939	7.433538688192	7504
628	1370	5.995116299081	1
628	1387	5.996876299081	0
628	1921	6.937065649587	1
628	1934	6.938825649587	0
628	2882	7.431770688192	2
628	2939	7.433538688192	0
629	1377	5.996000299081	1498326
629	1927	6.937949649587	1498327
629	2911	7.432662688192	1498328
630	1377	5.996000299081	1498553
630	1927	6.937949649587	1498553
630	2911	7.432662688192	1498553
631	1377	5.996000299081	0
632	1377	5.996000299081	1072
633	1377	5.996000299081	4294967295
634	1377	5.996000299081	0
634	1927	6.937949649587	0
634	2911	7.432662688192	0
635	1387	5.996876299081	0.00176
635	1934	6.938825649587	0.00176
635	2939	7.433538688192	0.001768
636	1387	5.996876299081	0.00022
636	1934	6.938825649587	0.0004125
636	2939	7.433538688192	0.0005819375
637	1387	5.996876299081	0.65647
637	1934	6.938825649587	0.57460375
637	2939	7.433538688192	0.50294771875
638	1387	5.996876299081	2.6261
638	1934	6.938825649587	2.2988275
638	2939	7.433538688192	2.0123728125
639	1387	5.996876299081	1072
639	1934	6.938825649587	1608
639	2939	7.433538688192	2144
640	1387	5.996876299081	4294967295
640	1934	6.938825649587	4294967295
640	2939	7.433538688192	4294967295
641	1387	5.996876299081	0
641	1934	6.938825649587	0
641	2939	7.433538688192	0

