version 2
run BROADCAST3-0-20220111-19:20:39-6136
attr configname BROADCAST3
attr datetime 20220111-19:20:39
attr experiment BROADCAST3
attr inifile omnetpp.ini
attr iterationvars ""
attr iterationvarsf ""
attr measurement ""
attr network scenario
attr processid 6136
attr repetition 0
attr replication #0
attr resultdir results
attr runnumber 0
attr seedset 0
param **.client0.app[0].broadcast 1.0
param **.client1.app[0].broadcast 1.4
param **.client2.app[0].broadcast 1.8
param **.client3.app[0].join 1.3
param **.ppp[*].ppp.queue.typename "\"DropTailQueue\""
param **.tcp.typename "\"Tcp\""
param **.tcp.nagleEnabled false
param **.cli*.app[*].nPar 5
param **.cli*.app[*].fPar 0
param **.numApps 1
param **.client0.app[*].typename "\"Node\""
param **.client0.app[0].localPort 1000
param **.client0.app[0].localPortL 1234
param **.client0.app[0].connectAddress "\"\""
param **.client0.app[0].connectPort 1234
param **.client1.app[*].typename "\"Node\""
param **.client1.app[0].localPort 1001
param **.client1.app[0].localPortL 1234
param **.client1.app[0].connectAddress "\"\""
param **.client1.app[0].connectPort 1234
param **.client2.app[*].typename "\"Node\""
param **.client2.app[0].localPort 1002
param **.client2.app[0].localPortL 1234
param **.client2.app[0].connectAddress "\"\""
param **.client2.app[0].connectPort 1234
param **.client3.app[*].typename "\"Node\""
param **.client3.app[0].localPort 1003
param **.client3.app[0].localPortL 1234
param **.client3.app[0].connectAddress "\"\""
param **.client3.app[0].connectPort 1234
param **.client4.app[*].typename "\"Node\""
param **.client4.app[0].localPort 1004
param **.client4.app[0].localPortL 1234
param **.client4.app[0].connectAddress "\"\""
param **.client4.app[0].connectPort 1234
param *.configurator.dumpAddresses true
param *.configurator.dumpTopology true
param *.configurator.dumpLinks true
param *.configurator.dumpRoutes true

vector 0 scenario.client0.ppp[0].ppp transmissionState:vector ETV
attr interpolationmode sample-hold
attr source transmissionStateChanged
attr title "tx state, vector"
vector 1 scenario.client0.ppp[1].ppp transmissionState:vector ETV
attr interpolationmode sample-hold
attr source transmissionStateChanged
attr title "tx state, vector"
vector 2 scenario.client0.ppp[2].ppp transmissionState:vector ETV
attr interpolationmode sample-hold
attr source transmissionStateChanged
attr title "tx state, vector"
vector 3 scenario.client0.ppp[3].ppp transmissionState:vector ETV
attr interpolationmode sample-hold
attr source transmissionStateChanged
attr title "tx state, vector"
vector 4 scenario.client1.ppp[0].ppp transmissionState:vector ETV
attr interpolationmode sample-hold
attr source transmissionStateChanged
attr title "tx state, vector"
vector 5 scenario.client1.ppp[1].ppp transmissionState:vector ETV
attr interpolationmode sample-hold
attr source transmissionStateChanged
attr title "tx state, vector"
vector 6 scenario.client1.ppp[2].ppp transmissionState:vector ETV
attr interpolationmode sample-hold
attr source transmissionStateChanged
attr title "tx state, vector"
vector 7 scenario.client1.ppp[3].ppp transmissionState:vector ETV
attr interpolationmode sample-hold
attr source transmissionStateChanged
attr title "tx state, vector"
vector 8 scenario.client2.ppp[0].ppp transmissionState:vector ETV
attr interpolationmode sample-hold
attr source transmissionStateChanged
attr title "tx state, vector"
vector 9 scenario.client2.ppp[1].ppp transmissionState:vector ETV
attr interpolationmode sample-hold
attr source transmissionStateChanged
attr title "tx state, vector"
vector 10 scenario.client2.ppp[2].ppp transmissionState:vector ETV
attr interpolationmode sample-hold
attr source transmissionStateChanged
attr title "tx state, vector"
vector 11 scenario.client2.ppp[3].ppp transmissionState:vector ETV
attr interpolationmode sample-hold
attr source transmissionStateChanged
attr title "tx state, vector"
vector 12 scenario.client3.ppp[0].ppp transmissionState:vector ETV
attr interpolationmode sample-hold
attr source transmissionStateChanged
attr title "tx state, vector"
vector 13 scenario.client3.ppp[1].ppp transmissionState:vector ETV
attr interpolationmode sample-hold
attr source transmissionStateChanged
attr title "tx state, vector"
vector 14 scenario.client3.ppp[2].ppp transmissionState:vector ETV
attr interpolationmode sample-hold
attr source transmissionStateChanged
attr title "tx state, vector"
vector 15 scenario.client3.ppp[3].ppp transmissionState:vector ETV
attr interpolationmode sample-hold
attr source transmissionStateChanged
attr title "tx state, vector"
vector 16 scenario.client4.ppp[0].ppp transmissionState:vector ETV
attr interpolationmode sample-hold
attr source transmissionStateChanged
attr title "tx state, vector"
vector 17 scenario.client4.ppp[1].ppp transmissionState:vector ETV
attr interpolationmode sample-hold
attr source transmissionStateChanged
attr title "tx state, vector"
vector 18 scenario.client4.ppp[2].ppp transmissionState:vector ETV
attr interpolationmode sample-hold
attr source transmissionStateChanged
attr title "tx state, vector"
vector 19 scenario.client4.ppp[3].ppp transmissionState:vector ETV
attr interpolationmode sample-hold
attr source transmissionStateChanged
attr title "tx state, vector"
vector 20 scenario.client0.tcp.conn-25 tcpRcvQueueBytes:vector ETV
attr interpolationmode sample-hold
vector 21 scenario.client0.tcp.conn-25 rcvAdv:vector ETV
attr interpolationmode sample-hold
vector 22 scenario.client0.tcp.conn-25 rcvWnd:vector ETV
attr interpolationmode sample-hold
vector 23 scenario.client0.tcp.conn-25 sndAck:vector ETV
attr interpolationmode sample-hold
vector 24 scenario.client0.ppp[1].ppp rcvdPkFromHl:vector(packetBytes) ETV
attr interpolationmode none
attr source packetReceivedFromUpper
attr title "packets received from higher layer, vector(packetBytes)"
vector 25 scenario.client0.ppp[1].ppp.queue packetPushed:vector(packetBytes) ETV
attr interpolationmode none
attr title "packet pushed, vector(packetBytes)"
vector 26 scenario.client0.ppp[1].ppp.queue queueLength:vector ETV
attr interpolationmode sample-hold
attr source "count(packetPushed) - count(packetPopped) - count(packetRemoved) - count(packetDropped)"
attr title "queue length, vector"
vector 27 scenario.client0.ppp[1].ppp.queue packetPopped:vector(packetBytes) ETV
attr interpolationmode none
attr title "packet popped, vector(packetBytes)"
vector 28 scenario.client0.ppp[1].ppp.queue queueingTime:vector ETV
attr interpolationmode none
attr source queueingTime(packetPopped)
attr title "queueing times, vector"
attr unit s
vector 29 scenario.client0.ppp[1].ppp txPk:vector(packetBytes) ETV
attr interpolationmode none
attr source packetSentToLower
attr title "packets transmitted, vector(packetBytes)"
vector 30 scenario.client2.ppp[0].ppp rxPkOk:vector(packetBytes) ETV
attr interpolationmode none
attr source rxPkOk
attr title "packets received OK, vector(packetBytes)"
vector 31 scenario.client2.ppp[0].ppp passedUpPk:vector(packetBytes) ETV
attr interpolationmode none
attr source packetSentToUpper
attr title "packets passed to higher layer, vector(packetBytes)"
vector 32 scenario.client2.tcp.conn-2 rcvSeq:vector ETV
attr interpolationmode sample-hold
vector 33 scenario.client2.tcp.conn-2 rcvAck:vector ETV
attr interpolationmode sample-hold
vector 34 scenario.client2.tcp.conn-26 rcvAdv:vector ETV
attr interpolationmode sample-hold
vector 35 scenario.client2.tcp.conn-26 sndWnd:vector ETV
attr interpolationmode sample-hold
vector 36 scenario.client2.tcp.conn-26 tcpRcvQueueBytes:vector ETV
attr interpolationmode sample-hold
vector 37 scenario.client2.tcp.conn-26 rcvWnd:vector ETV
attr interpolationmode sample-hold
vector 38 scenario.client2.tcp.conn-26 sndAck:vector ETV
attr interpolationmode sample-hold
vector 39 scenario.client2.ppp[0].ppp rcvdPkFromHl:vector(packetBytes) ETV
attr interpolationmode none
attr source packetReceivedFromUpper
attr title "packets received from higher layer, vector(packetBytes)"
vector 40 scenario.client2.ppp[0].ppp.queue packetPushed:vector(packetBytes) ETV
attr interpolationmode none
attr title "packet pushed, vector(packetBytes)"
vector 41 scenario.client2.ppp[0].ppp.queue queueLength:vector ETV
attr interpolationmode sample-hold
attr source "count(packetPushed) - count(packetPopped) - count(packetRemoved) - count(packetDropped)"
attr title "queue length, vector"
vector 42 scenario.client2.ppp[0].ppp.queue packetPopped:vector(packetBytes) ETV
attr interpolationmode none
attr title "packet popped, vector(packetBytes)"
vector 43 scenario.client2.ppp[0].ppp.queue queueingTime:vector ETV
attr interpolationmode none
attr source queueingTime(packetPopped)
attr title "queueing times, vector"
attr unit s
vector 44 scenario.client2.ppp[0].ppp txPk:vector(packetBytes) ETV
attr interpolationmode none
attr source packetSentToLower
attr title "packets transmitted, vector(packetBytes)"
vector 45 scenario.client0.ppp[1].ppp rxPkOk:vector(packetBytes) ETV
attr interpolationmode none
attr source rxPkOk
attr title "packets received OK, vector(packetBytes)"
vector 46 scenario.client0.ppp[1].ppp passedUpPk:vector(packetBytes) ETV
attr interpolationmode none
attr source packetSentToUpper
attr title "packets passed to higher layer, vector(packetBytes)"
vector 47 scenario.client0.tcp.conn-25 rcvSeq:vector ETV
attr interpolationmode sample-hold
vector 48 scenario.client0.tcp.conn-25 rcvAck:vector ETV
attr interpolationmode sample-hold
vector 49 scenario.client0.tcp.conn-25 sndWnd:vector ETV
attr interpolationmode sample-hold
vector 50 scenario.client0.tcp.conn-25 unacked:vector ETV
attr interpolationmode sample-hold
vector 51 scenario.client2.tcp.conn-26 rcvSeq:vector ETV
attr interpolationmode sample-hold
vector 52 scenario.client2.tcp.conn-26 rcvAck:vector ETV
attr interpolationmode sample-hold
vector 53 scenario.client2.tcp.conn-26 unacked:vector ETV
attr interpolationmode sample-hold
vector 54 scenario.client2.tcp.conn-26 cwnd:vector ETV
attr interpolationmode sample-hold
vector 55 scenario.client2.tcp.conn-26 ssthresh:vector ETV
attr interpolationmode sample-hold
vector 56 scenario.client2.tcp.conn-26 dupAcks:vector ETV
attr interpolationmode sample-hold
vector 57 scenario.client0.tcp.conn-25 rtt:vector ETV
attr interpolationmode sample-hold
vector 58 scenario.client0.tcp.conn-25 srtt:vector ETV
attr interpolationmode sample-hold
vector 59 scenario.client0.tcp.conn-25 rttvar:vector ETV
attr interpolationmode sample-hold
vector 60 scenario.client0.tcp.conn-25 rto:vector ETV
attr interpolationmode sample-hold
vector 61 scenario.client0.tcp.conn-25 cwnd:vector ETV
attr interpolationmode sample-hold
vector 62 scenario.client0.tcp.conn-25 ssthresh:vector ETV
attr interpolationmode sample-hold
vector 63 scenario.client0.tcp.conn-25 dupAcks:vector ETV
attr interpolationmode sample-hold
vector 64 scenario.client3.tcp.conn-27 tcpRcvQueueBytes:vector ETV
attr interpolationmode sample-hold
vector 65 scenario.client3.tcp.conn-27 rcvAdv:vector ETV
attr interpolationmode sample-hold
vector 66 scenario.client3.tcp.conn-27 rcvWnd:vector ETV
attr interpolationmode sample-hold
vector 67 scenario.client3.tcp.conn-27 sndAck:vector ETV
attr interpolationmode sample-hold
vector 68 scenario.client3.ppp[0].ppp rcvdPkFromHl:vector(packetBytes) ETV
attr interpolationmode none
attr source packetReceivedFromUpper
attr title "packets received from higher layer, vector(packetBytes)"
vector 69 scenario.client3.ppp[0].ppp.queue packetPushed:vector(packetBytes) ETV
attr interpolationmode none
attr title "packet pushed, vector(packetBytes)"
vector 70 scenario.client3.ppp[0].ppp.queue queueLength:vector ETV
attr interpolationmode sample-hold
attr source "count(packetPushed) - count(packetPopped) - count(packetRemoved) - count(packetDropped)"
attr title "queue length, vector"
vector 71 scenario.client3.ppp[0].ppp.queue packetPopped:vector(packetBytes) ETV
attr interpolationmode none
attr title "packet popped, vector(packetBytes)"
vector 72 scenario.client3.ppp[0].ppp.queue queueingTime:vector ETV
attr interpolationmode none
attr source queueingTime(packetPopped)
attr title "queueing times, vector"
attr unit s
vector 73 scenario.client3.ppp[0].ppp txPk:vector(packetBytes) ETV
attr interpolationmode none
attr source packetSentToLower
attr title "packets transmitted, vector(packetBytes)"
vector 74 scenario.client0.ppp[2].ppp rxPkOk:vector(packetBytes) ETV
attr interpolationmode none
attr source rxPkOk
attr title "packets received OK, vector(packetBytes)"
vector 75 scenario.client0.ppp[2].ppp passedUpPk:vector(packetBytes) ETV
attr interpolationmode none
attr source packetSentToUpper
attr title "packets passed to higher layer, vector(packetBytes)"
vector 76 scenario.client0.tcp.conn-0 rcvSeq:vector ETV
attr interpolationmode sample-hold
vector 77 scenario.client0.tcp.conn-0 rcvAck:vector ETV
attr interpolationmode sample-hold
vector 78 scenario.client0.tcp.conn-28 rcvAdv:vector ETV
attr interpolationmode sample-hold
vector 79 scenario.client0.tcp.conn-28 sndWnd:vector ETV
attr interpolationmode sample-hold
vector 80 scenario.client0.tcp.conn-28 tcpRcvQueueBytes:vector ETV
attr interpolationmode sample-hold
vector 81 scenario.client0.tcp.conn-28 rcvWnd:vector ETV
attr interpolationmode sample-hold
vector 82 scenario.client0.tcp.conn-28 sndAck:vector ETV
attr interpolationmode sample-hold
vector 83 scenario.client0.ppp[2].ppp rcvdPkFromHl:vector(packetBytes) ETV
attr interpolationmode none
attr source packetReceivedFromUpper
attr title "packets received from higher layer, vector(packetBytes)"
vector 84 scenario.client0.ppp[2].ppp.queue packetPushed:vector(packetBytes) ETV
attr interpolationmode none
attr title "packet pushed, vector(packetBytes)"
vector 85 scenario.client0.ppp[2].ppp.queue queueLength:vector ETV
attr interpolationmode sample-hold
attr source "count(packetPushed) - count(packetPopped) - count(packetRemoved) - count(packetDropped)"
attr title "queue length, vector"
vector 86 scenario.client0.ppp[2].ppp.queue packetPopped:vector(packetBytes) ETV
attr interpolationmode none
attr title "packet popped, vector(packetBytes)"
vector 87 scenario.client0.ppp[2].ppp.queue queueingTime:vector ETV
attr interpolationmode none
attr source queueingTime(packetPopped)
attr title "queueing times, vector"
attr unit s
vector 88 scenario.client0.ppp[2].ppp txPk:vector(packetBytes) ETV
attr interpolationmode none
attr source packetSentToLower
attr title "packets transmitted, vector(packetBytes)"
vector 89 scenario.client3.ppp[0].ppp rxPkOk:vector(packetBytes) ETV
attr interpolationmode none
attr source rxPkOk
attr title "packets received OK, vector(packetBytes)"
vector 90 scenario.client3.ppp[0].ppp passedUpPk:vector(packetBytes) ETV
attr interpolationmode none
attr source packetSentToUpper
attr title "packets passed to higher layer, vector(packetBytes)"
vector 91 scenario.client3.tcp.conn-27 rcvSeq:vector ETV
attr interpolationmode sample-hold
vector 92 scenario.client3.tcp.conn-27 rcvAck:vector ETV
attr interpolationmode sample-hold
vector 93 scenario.client3.tcp.conn-27 sndWnd:vector ETV
attr interpolationmode sample-hold
vector 94 scenario.client3.tcp.conn-27 unacked:vector ETV
attr interpolationmode sample-hold
vector 95 scenario.client0.tcp.conn-28 rcvSeq:vector ETV
attr interpolationmode sample-hold
vector 96 scenario.client0.tcp.conn-28 rcvAck:vector ETV
attr interpolationmode sample-hold
vector 97 scenario.client0.tcp.conn-28 unacked:vector ETV
attr interpolationmode sample-hold
vector 98 scenario.client0.tcp.conn-28 cwnd:vector ETV
attr interpolationmode sample-hold
vector 99 scenario.client0.tcp.conn-28 ssthresh:vector ETV
attr interpolationmode sample-hold
vector 100 scenario.client0.tcp.conn-28 dupAcks:vector ETV
attr interpolationmode sample-hold
vector 101 scenario.client3.tcp.conn-27 rtt:vector ETV
attr interpolationmode sample-hold
vector 102 scenario.client3.tcp.conn-27 srtt:vector ETV
attr interpolationmode sample-hold
vector 103 scenario.client3.tcp.conn-27 rttvar:vector ETV
attr interpolationmode sample-hold
vector 104 scenario.client3.tcp.conn-27 rto:vector ETV
attr interpolationmode sample-hold
vector 105 scenario.client3.tcp.conn-27 cwnd:vector ETV
attr interpolationmode sample-hold
vector 106 scenario.client3.tcp.conn-27 ssthresh:vector ETV
attr interpolationmode sample-hold
vector 107 scenario.client3.tcp.conn-27 dupAcks:vector ETV
attr interpolationmode sample-hold
vector 108 scenario.client3.tcp.conn-29 tcpRcvQueueBytes:vector ETV
attr interpolationmode sample-hold
vector 109 scenario.client3.tcp.conn-29 rcvAdv:vector ETV
attr interpolationmode sample-hold
vector 110 scenario.client3.tcp.conn-29 rcvWnd:vector ETV
attr interpolationmode sample-hold
vector 111 scenario.client3.tcp.conn-29 sndAck:vector ETV
attr interpolationmode sample-hold
vector 112 scenario.client3.ppp[1].ppp rcvdPkFromHl:vector(packetBytes) ETV
attr interpolationmode none
attr source packetReceivedFromUpper
attr title "packets received from higher layer, vector(packetBytes)"
vector 113 scenario.client3.ppp[1].ppp.queue packetPushed:vector(packetBytes) ETV
attr interpolationmode none
attr title "packet pushed, vector(packetBytes)"
vector 114 scenario.client3.ppp[1].ppp.queue queueLength:vector ETV
attr interpolationmode sample-hold
attr source "count(packetPushed) - count(packetPopped) - count(packetRemoved) - count(packetDropped)"
attr title "queue length, vector"
vector 115 scenario.client3.ppp[1].ppp.queue packetPopped:vector(packetBytes) ETV
attr interpolationmode none
attr title "packet popped, vector(packetBytes)"
vector 116 scenario.client3.ppp[1].ppp.queue queueingTime:vector ETV
attr interpolationmode none
attr source queueingTime(packetPopped)
attr title "queueing times, vector"
attr unit s
vector 117 scenario.client3.ppp[1].ppp txPk:vector(packetBytes) ETV
attr interpolationmode none
attr source packetSentToLower
attr title "packets transmitted, vector(packetBytes)"
vector 118 scenario.client1.ppp[2].ppp rxPkOk:vector(packetBytes) ETV
attr interpolationmode none
attr source rxPkOk
attr title "packets received OK, vector(packetBytes)"
vector 119 scenario.client1.ppp[2].ppp passedUpPk:vector(packetBytes) ETV
attr interpolationmode none
attr source packetSentToUpper
attr title "packets passed to higher layer, vector(packetBytes)"
vector 120 scenario.client1.tcp.conn-1 rcvSeq:vector ETV
attr interpolationmode sample-hold
vector 121 scenario.client1.tcp.conn-1 rcvAck:vector ETV
attr interpolationmode sample-hold
vector 122 scenario.client1.tcp.conn-30 rcvAdv:vector ETV
attr interpolationmode sample-hold
vector 123 scenario.client1.tcp.conn-30 sndWnd:vector ETV
attr interpolationmode sample-hold
vector 124 scenario.client1.tcp.conn-30 tcpRcvQueueBytes:vector ETV
attr interpolationmode sample-hold
vector 125 scenario.client1.tcp.conn-30 rcvWnd:vector ETV
attr interpolationmode sample-hold
vector 126 scenario.client1.tcp.conn-30 sndAck:vector ETV
attr interpolationmode sample-hold
vector 127 scenario.client1.ppp[2].ppp rcvdPkFromHl:vector(packetBytes) ETV
attr interpolationmode none
attr source packetReceivedFromUpper
attr title "packets received from higher layer, vector(packetBytes)"
vector 128 scenario.client1.ppp[2].ppp.queue packetPushed:vector(packetBytes) ETV
attr interpolationmode none
attr title "packet pushed, vector(packetBytes)"
vector 129 scenario.client1.ppp[2].ppp.queue queueLength:vector ETV
attr interpolationmode sample-hold
attr source "count(packetPushed) - count(packetPopped) - count(packetRemoved) - count(packetDropped)"
attr title "queue length, vector"
vector 130 scenario.client1.ppp[2].ppp.queue packetPopped:vector(packetBytes) ETV
attr interpolationmode none
attr title "packet popped, vector(packetBytes)"
vector 131 scenario.client1.ppp[2].ppp.queue queueingTime:vector ETV
attr interpolationmode none
attr source queueingTime(packetPopped)
attr title "queueing times, vector"
attr unit s
vector 132 scenario.client1.ppp[2].ppp txPk:vector(packetBytes) ETV
attr interpolationmode none
attr source packetSentToLower
attr title "packets transmitted, vector(packetBytes)"
vector 133 scenario.client3.ppp[1].ppp rxPkOk:vector(packetBytes) ETV
attr interpolationmode none
attr source rxPkOk
attr title "packets received OK, vector(packetBytes)"
vector 134 scenario.client3.ppp[1].ppp passedUpPk:vector(packetBytes) ETV
attr interpolationmode none
attr source packetSentToUpper
attr title "packets passed to higher layer, vector(packetBytes)"
vector 135 scenario.client3.tcp.conn-29 rcvSeq:vector ETV
attr interpolationmode sample-hold
vector 136 scenario.client3.tcp.conn-29 rcvAck:vector ETV
attr interpolationmode sample-hold
vector 137 scenario.client3.tcp.conn-29 sndWnd:vector ETV
attr interpolationmode sample-hold
vector 138 scenario.client3.tcp.conn-29 unacked:vector ETV
attr interpolationmode sample-hold
vector 139 scenario.client1.tcp.conn-30 rcvSeq:vector ETV
attr interpolationmode sample-hold
vector 140 scenario.client1.tcp.conn-30 rcvAck:vector ETV
attr interpolationmode sample-hold
vector 141 scenario.client1.tcp.conn-30 unacked:vector ETV
attr interpolationmode sample-hold
vector 142 scenario.client1.tcp.conn-30 cwnd:vector ETV
attr interpolationmode sample-hold
vector 143 scenario.client1.tcp.conn-30 ssthresh:vector ETV
attr interpolationmode sample-hold
vector 144 scenario.client1.tcp.conn-30 dupAcks:vector ETV
attr interpolationmode sample-hold
vector 145 scenario.client3.tcp.conn-29 rtt:vector ETV
attr interpolationmode sample-hold
vector 146 scenario.client3.tcp.conn-29 srtt:vector ETV
attr interpolationmode sample-hold
vector 147 scenario.client3.tcp.conn-29 rttvar:vector ETV
attr interpolationmode sample-hold
vector 148 scenario.client3.tcp.conn-29 rto:vector ETV
attr interpolationmode sample-hold
vector 149 scenario.client3.tcp.conn-29 cwnd:vector ETV
attr interpolationmode sample-hold
vector 150 scenario.client3.tcp.conn-29 ssthresh:vector ETV
attr interpolationmode sample-hold
vector 151 scenario.client3.tcp.conn-29 dupAcks:vector ETV
attr interpolationmode sample-hold
vector 152 scenario.client0.tcp.conn-31 tcpRcvQueueBytes:vector ETV
attr interpolationmode sample-hold
vector 153 scenario.client0.tcp.conn-31 rcvAdv:vector ETV
attr interpolationmode sample-hold
vector 154 scenario.client0.tcp.conn-31 rcvWnd:vector ETV
attr interpolationmode sample-hold
vector 155 scenario.client0.tcp.conn-31 sndAck:vector ETV
attr interpolationmode sample-hold
vector 156 scenario.client0.tcp.conn-32 tcpRcvQueueBytes:vector ETV
attr interpolationmode sample-hold
vector 157 scenario.client0.tcp.conn-32 rcvAdv:vector ETV
attr interpolationmode sample-hold
vector 158 scenario.client0.tcp.conn-32 rcvWnd:vector ETV
attr interpolationmode sample-hold
vector 159 scenario.client0.tcp.conn-32 sndAck:vector ETV
attr interpolationmode sample-hold
vector 160 scenario.client0.ppp[0].ppp rcvdPkFromHl:vector(packetBytes) ETV
attr interpolationmode none
attr source packetReceivedFromUpper
attr title "packets received from higher layer, vector(packetBytes)"
vector 161 scenario.client0.ppp[0].ppp.queue packetPushed:vector(packetBytes) ETV
attr interpolationmode none
attr title "packet pushed, vector(packetBytes)"
vector 162 scenario.client0.ppp[0].ppp.queue queueLength:vector ETV
attr interpolationmode sample-hold
attr source "count(packetPushed) - count(packetPopped) - count(packetRemoved) - count(packetDropped)"
attr title "queue length, vector"
vector 163 scenario.client0.ppp[0].ppp.queue packetPopped:vector(packetBytes) ETV
attr interpolationmode none
attr title "packet popped, vector(packetBytes)"
vector 164 scenario.client0.ppp[0].ppp.queue queueingTime:vector ETV
attr interpolationmode none
attr source queueingTime(packetPopped)
attr title "queueing times, vector"
attr unit s
vector 165 scenario.client0.ppp[0].ppp txPk:vector(packetBytes) ETV
attr interpolationmode none
attr source packetSentToLower
attr title "packets transmitted, vector(packetBytes)"
vector 166 scenario.client3.tcp.conn-3 rcvSeq:vector ETV
attr interpolationmode sample-hold
vector 167 scenario.client3.tcp.conn-3 rcvAck:vector ETV
attr interpolationmode sample-hold
vector 168 scenario.client3.tcp.conn-33 rcvAdv:vector ETV
attr interpolationmode sample-hold
vector 169 scenario.client3.tcp.conn-33 sndWnd:vector ETV
attr interpolationmode sample-hold
vector 170 scenario.client3.tcp.conn-33 tcpRcvQueueBytes:vector ETV
attr interpolationmode sample-hold
vector 171 scenario.client3.tcp.conn-33 rcvWnd:vector ETV
attr interpolationmode sample-hold
vector 172 scenario.client3.tcp.conn-33 sndAck:vector ETV
attr interpolationmode sample-hold
vector 173 scenario.client1.ppp[0].ppp rxPkOk:vector(packetBytes) ETV
attr interpolationmode none
attr source rxPkOk
attr title "packets received OK, vector(packetBytes)"
vector 174 scenario.client1.ppp[0].ppp passedUpPk:vector(packetBytes) ETV
attr interpolationmode none
attr source packetSentToUpper
attr title "packets passed to higher layer, vector(packetBytes)"
vector 175 scenario.client1.tcp.conn-34 rcvAdv:vector ETV
attr interpolationmode sample-hold
vector 176 scenario.client1.tcp.conn-34 sndWnd:vector ETV
attr interpolationmode sample-hold
vector 177 scenario.client1.tcp.conn-34 tcpRcvQueueBytes:vector ETV
attr interpolationmode sample-hold
vector 178 scenario.client1.tcp.conn-34 rcvWnd:vector ETV
attr interpolationmode sample-hold
vector 179 scenario.client1.tcp.conn-34 sndAck:vector ETV
attr interpolationmode sample-hold
vector 180 scenario.client1.ppp[0].ppp rcvdPkFromHl:vector(packetBytes) ETV
attr interpolationmode none
attr source packetReceivedFromUpper
attr title "packets received from higher layer, vector(packetBytes)"
vector 181 scenario.client1.ppp[0].ppp.queue packetPushed:vector(packetBytes) ETV
attr interpolationmode none
attr title "packet pushed, vector(packetBytes)"
vector 182 scenario.client1.ppp[0].ppp.queue queueLength:vector ETV
attr interpolationmode sample-hold
attr source "count(packetPushed) - count(packetPopped) - count(packetRemoved) - count(packetDropped)"
attr title "queue length, vector"
vector 183 scenario.client1.ppp[0].ppp.queue packetPopped:vector(packetBytes) ETV
attr interpolationmode none
attr title "packet popped, vector(packetBytes)"
vector 184 scenario.client1.ppp[0].ppp.queue queueingTime:vector ETV
attr interpolationmode none
attr source queueingTime(packetPopped)
attr title "queueing times, vector"
attr unit s
vector 185 scenario.client1.ppp[0].ppp txPk:vector(packetBytes) ETV
attr interpolationmode none
attr source packetSentToLower
attr title "packets transmitted, vector(packetBytes)"
vector 186 scenario.client0.tcp.conn-31 rcvSeq:vector ETV
attr interpolationmode sample-hold
vector 187 scenario.client0.tcp.conn-31 rcvAck:vector ETV
attr interpolationmode sample-hold
vector 188 scenario.client0.tcp.conn-31 sndWnd:vector ETV
attr interpolationmode sample-hold
vector 189 scenario.client0.tcp.conn-31 unacked:vector ETV
attr interpolationmode sample-hold
vector 190 scenario.client0.ppp[0].ppp rxPkOk:vector(packetBytes) ETV
attr interpolationmode none
attr source rxPkOk
attr title "packets received OK, vector(packetBytes)"
vector 191 scenario.client0.ppp[0].ppp passedUpPk:vector(packetBytes) ETV
attr interpolationmode none
attr source packetSentToUpper
attr title "packets passed to higher layer, vector(packetBytes)"
vector 192 scenario.client0.tcp.conn-32 rcvSeq:vector ETV
attr interpolationmode sample-hold
vector 193 scenario.client0.tcp.conn-32 rcvAck:vector ETV
attr interpolationmode sample-hold
vector 194 scenario.client0.tcp.conn-32 sndWnd:vector ETV
attr interpolationmode sample-hold
vector 195 scenario.client0.tcp.conn-32 unacked:vector ETV
attr interpolationmode sample-hold
vector 196 scenario.client3.tcp.conn-33 rcvSeq:vector ETV
attr interpolationmode sample-hold
vector 197 scenario.client3.tcp.conn-33 rcvAck:vector ETV
attr interpolationmode sample-hold
vector 198 scenario.client3.tcp.conn-33 unacked:vector ETV
attr interpolationmode sample-hold
vector 199 scenario.client3.tcp.conn-33 cwnd:vector ETV
attr interpolationmode sample-hold
vector 200 scenario.client3.tcp.conn-33 ssthresh:vector ETV
attr interpolationmode sample-hold
vector 201 scenario.client3.tcp.conn-33 dupAcks:vector ETV
attr interpolationmode sample-hold
vector 202 scenario.client1.tcp.conn-34 rcvSeq:vector ETV
attr interpolationmode sample-hold
vector 203 scenario.client1.tcp.conn-34 rcvAck:vector ETV
attr interpolationmode sample-hold
vector 204 scenario.client1.tcp.conn-34 unacked:vector ETV
attr interpolationmode sample-hold
vector 205 scenario.client1.tcp.conn-34 cwnd:vector ETV
attr interpolationmode sample-hold
vector 206 scenario.client1.tcp.conn-34 ssthresh:vector ETV
attr interpolationmode sample-hold
vector 207 scenario.client1.tcp.conn-34 dupAcks:vector ETV
attr interpolationmode sample-hold
vector 208 scenario.client0.tcp.conn-31 rtt:vector ETV
attr interpolationmode sample-hold
vector 209 scenario.client0.tcp.conn-31 srtt:vector ETV
attr interpolationmode sample-hold
vector 210 scenario.client0.tcp.conn-31 rttvar:vector ETV
attr interpolationmode sample-hold
vector 211 scenario.client0.tcp.conn-31 rto:vector ETV
attr interpolationmode sample-hold
vector 212 scenario.client0.tcp.conn-31 cwnd:vector ETV
attr interpolationmode sample-hold
vector 213 scenario.client0.tcp.conn-31 ssthresh:vector ETV
attr interpolationmode sample-hold
vector 214 scenario.client0.tcp.conn-31 dupAcks:vector ETV
attr interpolationmode sample-hold
vector 215 scenario.client0.tcp.conn-32 rtt:vector ETV
attr interpolationmode sample-hold
vector 216 scenario.client0.tcp.conn-32 srtt:vector ETV
attr interpolationmode sample-hold
vector 217 scenario.client0.tcp.conn-32 rttvar:vector ETV
attr interpolationmode sample-hold
vector 218 scenario.client0.tcp.conn-32 rto:vector ETV
attr interpolationmode sample-hold
vector 219 scenario.client0.tcp.conn-32 cwnd:vector ETV
attr interpolationmode sample-hold
vector 220 scenario.client0.tcp.conn-32 ssthresh:vector ETV
attr interpolationmode sample-hold
vector 221 scenario.client0.tcp.conn-32 dupAcks:vector ETV
attr interpolationmode sample-hold
vector 222 scenario.client1.tcp.conn-35 tcpRcvQueueBytes:vector ETV
attr interpolationmode sample-hold
vector 223 scenario.client1.tcp.conn-35 rcvAdv:vector ETV
attr interpolationmode sample-hold
vector 224 scenario.client1.tcp.conn-35 rcvWnd:vector ETV
attr interpolationmode sample-hold
vector 225 scenario.client1.tcp.conn-35 sndAck:vector ETV
attr interpolationmode sample-hold
vector 226 scenario.client0.tcp.conn-36 rcvAdv:vector ETV
attr interpolationmode sample-hold
vector 227 scenario.client0.tcp.conn-36 sndWnd:vector ETV
attr interpolationmode sample-hold
vector 228 scenario.client0.tcp.conn-36 tcpRcvQueueBytes:vector ETV
attr interpolationmode sample-hold
vector 229 scenario.client0.tcp.conn-36 rcvWnd:vector ETV
attr interpolationmode sample-hold
vector 230 scenario.client0.tcp.conn-36 sndAck:vector ETV
attr interpolationmode sample-hold
vector 231 scenario.client1.tcp.conn-35 rcvSeq:vector ETV
attr interpolationmode sample-hold
vector 232 scenario.client1.tcp.conn-35 rcvAck:vector ETV
attr interpolationmode sample-hold
vector 233 scenario.client1.tcp.conn-35 sndWnd:vector ETV
attr interpolationmode sample-hold
vector 234 scenario.client1.tcp.conn-35 unacked:vector ETV
attr interpolationmode sample-hold
vector 235 scenario.client0.tcp.conn-36 rcvSeq:vector ETV
attr interpolationmode sample-hold
vector 236 scenario.client0.tcp.conn-36 rcvAck:vector ETV
attr interpolationmode sample-hold
vector 237 scenario.client0.tcp.conn-36 unacked:vector ETV
attr interpolationmode sample-hold
vector 238 scenario.client0.tcp.conn-36 cwnd:vector ETV
attr interpolationmode sample-hold
vector 239 scenario.client0.tcp.conn-36 ssthresh:vector ETV
attr interpolationmode sample-hold
vector 240 scenario.client0.tcp.conn-36 dupAcks:vector ETV
attr interpolationmode sample-hold
vector 241 scenario.client1.tcp.conn-35 rtt:vector ETV
attr interpolationmode sample-hold
vector 242 scenario.client1.tcp.conn-35 srtt:vector ETV
attr interpolationmode sample-hold
vector 243 scenario.client1.tcp.conn-35 rttvar:vector ETV
attr interpolationmode sample-hold
vector 244 scenario.client1.tcp.conn-35 rto:vector ETV
attr interpolationmode sample-hold
vector 245 scenario.client1.tcp.conn-35 cwnd:vector ETV
attr interpolationmode sample-hold
vector 246 scenario.client1.tcp.conn-35 ssthresh:vector ETV
attr interpolationmode sample-hold
vector 247 scenario.client1.tcp.conn-35 dupAcks:vector ETV
attr interpolationmode sample-hold
vector 248 scenario.client2.tcp.conn-37 tcpRcvQueueBytes:vector ETV
attr interpolationmode sample-hold
vector 249 scenario.client2.tcp.conn-37 rcvAdv:vector ETV
attr interpolationmode sample-hold
vector 250 scenario.client2.tcp.conn-37 rcvWnd:vector ETV
attr interpolationmode sample-hold
vector 251 scenario.client2.tcp.conn-37 sndAck:vector ETV
attr interpolationmode sample-hold
vector 252 scenario.client0.tcp.conn-38 rcvAdv:vector ETV
attr interpolationmode sample-hold
vector 253 scenario.client0.tcp.conn-38 sndWnd:vector ETV
attr interpolationmode sample-hold
vector 254 scenario.client0.tcp.conn-38 tcpRcvQueueBytes:vector ETV
attr interpolationmode sample-hold
vector 255 scenario.client0.tcp.conn-38 rcvWnd:vector ETV
attr interpolationmode sample-hold
vector 256 scenario.client0.tcp.conn-38 sndAck:vector ETV
attr interpolationmode sample-hold
vector 257 scenario.client2.tcp.conn-37 rcvSeq:vector ETV
attr interpolationmode sample-hold
vector 258 scenario.client2.tcp.conn-37 rcvAck:vector ETV
attr interpolationmode sample-hold
vector 259 scenario.client2.tcp.conn-37 sndWnd:vector ETV
attr interpolationmode sample-hold
vector 260 scenario.client2.tcp.conn-37 unacked:vector ETV
attr interpolationmode sample-hold
vector 261 scenario.client0.tcp.conn-38 rcvSeq:vector ETV
attr interpolationmode sample-hold
vector 262 scenario.client0.tcp.conn-38 rcvAck:vector ETV
attr interpolationmode sample-hold
vector 263 scenario.client0.tcp.conn-38 unacked:vector ETV
attr interpolationmode sample-hold
vector 264 scenario.client0.tcp.conn-38 cwnd:vector ETV
attr interpolationmode sample-hold
vector 265 scenario.client0.tcp.conn-38 ssthresh:vector ETV
attr interpolationmode sample-hold
vector 266 scenario.client0.tcp.conn-38 dupAcks:vector ETV
attr interpolationmode sample-hold
vector 267 scenario.client2.tcp.conn-37 rtt:vector ETV
attr interpolationmode sample-hold
vector 268 scenario.client2.tcp.conn-37 srtt:vector ETV
attr interpolationmode sample-hold
vector 269 scenario.client2.tcp.conn-37 rttvar:vector ETV
attr interpolationmode sample-hold
vector 270 scenario.client2.tcp.conn-37 rto:vector ETV
attr interpolationmode sample-hold
vector 271 scenario.client2.tcp.conn-37 cwnd:vector ETV
attr interpolationmode sample-hold
vector 272 scenario.client2.tcp.conn-37 ssthresh:vector ETV
attr interpolationmode sample-hold
vector 273 scenario.client2.tcp.conn-37 dupAcks:vector ETV
attr interpolationmode sample-hold
vector 274 scenario.client3.tcp.conn-39 tcpRcvQueueBytes:vector ETV
attr interpolationmode sample-hold
vector 275 scenario.client3.tcp.conn-39 rcvAdv:vector ETV
attr interpolationmode sample-hold
vector 276 scenario.client3.tcp.conn-39 rcvWnd:vector ETV
attr interpolationmode sample-hold
vector 277 scenario.client3.tcp.conn-39 sndAck:vector ETV
attr interpolationmode sample-hold
vector 278 scenario.client3.ppp[2].ppp rcvdPkFromHl:vector(packetBytes) ETV
attr interpolationmode none
attr source packetReceivedFromUpper
attr title "packets received from higher layer, vector(packetBytes)"
vector 279 scenario.client3.ppp[2].ppp.queue packetPushed:vector(packetBytes) ETV
attr interpolationmode none
attr title "packet pushed, vector(packetBytes)"
vector 280 scenario.client3.ppp[2].ppp.queue queueLength:vector ETV
attr interpolationmode sample-hold
attr source "count(packetPushed) - count(packetPopped) - count(packetRemoved) - count(packetDropped)"
attr title "queue length, vector"
vector 281 scenario.client3.ppp[2].ppp.queue packetPopped:vector(packetBytes) ETV
attr interpolationmode none
attr title "packet popped, vector(packetBytes)"
vector 282 scenario.client3.ppp[2].ppp.queue queueingTime:vector ETV
attr interpolationmode none
attr source queueingTime(packetPopped)
attr title "queueing times, vector"
attr unit s
vector 283 scenario.client3.ppp[2].ppp txPk:vector(packetBytes) ETV
attr interpolationmode none
attr source packetSentToLower
attr title "packets transmitted, vector(packetBytes)"
vector 284 scenario.client2.ppp[2].ppp rxPkOk:vector(packetBytes) ETV
attr interpolationmode none
attr source rxPkOk
attr title "packets received OK, vector(packetBytes)"
vector 285 scenario.client2.ppp[2].ppp passedUpPk:vector(packetBytes) ETV
attr interpolationmode none
attr source packetSentToUpper
attr title "packets passed to higher layer, vector(packetBytes)"
vector 286 scenario.client2.tcp.conn-40 rcvAdv:vector ETV
attr interpolationmode sample-hold
vector 287 scenario.client2.tcp.conn-40 sndWnd:vector ETV
attr interpolationmode sample-hold
vector 288 scenario.client2.tcp.conn-40 tcpRcvQueueBytes:vector ETV
attr interpolationmode sample-hold
vector 289 scenario.client2.tcp.conn-40 rcvWnd:vector ETV
attr interpolationmode sample-hold
vector 290 scenario.client2.tcp.conn-40 sndAck:vector ETV
attr interpolationmode sample-hold
vector 291 scenario.client2.ppp[2].ppp rcvdPkFromHl:vector(packetBytes) ETV
attr interpolationmode none
attr source packetReceivedFromUpper
attr title "packets received from higher layer, vector(packetBytes)"
vector 292 scenario.client2.ppp[2].ppp.queue packetPushed:vector(packetBytes) ETV
attr interpolationmode none
attr title "packet pushed, vector(packetBytes)"
vector 293 scenario.client2.ppp[2].ppp.queue queueLength:vector ETV
attr interpolationmode sample-hold
attr source "count(packetPushed) - count(packetPopped) - count(packetRemoved) - count(packetDropped)"
attr title "queue length, vector"
vector 294 scenario.client2.ppp[2].ppp.queue packetPopped:vector(packetBytes) ETV
attr interpolationmode none
attr title "packet popped, vector(packetBytes)"
vector 295 scenario.client2.ppp[2].ppp.queue queueingTime:vector ETV
attr interpolationmode none
attr source queueingTime(packetPopped)
attr title "queueing times, vector"
attr unit s
vector 296 scenario.client2.ppp[2].ppp txPk:vector(packetBytes) ETV
attr interpolationmode none
attr source packetSentToLower
attr title "packets transmitted, vector(packetBytes)"
vector 297 scenario.client3.ppp[2].ppp rxPkOk:vector(packetBytes) ETV
attr interpolationmode none
attr source rxPkOk
attr title "packets received OK, vector(packetBytes)"
vector 298 scenario.client3.ppp[2].ppp passedUpPk:vector(packetBytes) ETV
attr interpolationmode none
attr source packetSentToUpper
attr title "packets passed to higher layer, vector(packetBytes)"
vector 299 scenario.client3.tcp.conn-39 rcvSeq:vector ETV
attr interpolationmode sample-hold
vector 300 scenario.client3.tcp.conn-39 rcvAck:vector ETV
attr interpolationmode sample-hold
vector 301 scenario.client3.tcp.conn-39 sndWnd:vector ETV
attr interpolationmode sample-hold
vector 302 scenario.client3.tcp.conn-39 unacked:vector ETV
attr interpolationmode sample-hold
vector 303 scenario.client2.tcp.conn-40 rcvSeq:vector ETV
attr interpolationmode sample-hold
vector 304 scenario.client2.tcp.conn-40 rcvAck:vector ETV
attr interpolationmode sample-hold
vector 305 scenario.client2.tcp.conn-40 unacked:vector ETV
attr interpolationmode sample-hold
vector 306 scenario.client2.tcp.conn-40 cwnd:vector ETV
attr interpolationmode sample-hold
vector 307 scenario.client2.tcp.conn-40 ssthresh:vector ETV
attr interpolationmode sample-hold
vector 308 scenario.client2.tcp.conn-40 dupAcks:vector ETV
attr interpolationmode sample-hold
vector 309 scenario.client3.tcp.conn-39 rtt:vector ETV
attr interpolationmode sample-hold
vector 310 scenario.client3.tcp.conn-39 srtt:vector ETV
attr interpolationmode sample-hold
vector 311 scenario.client3.tcp.conn-39 rttvar:vector ETV
attr interpolationmode sample-hold
vector 312 scenario.client3.tcp.conn-39 rto:vector ETV
attr interpolationmode sample-hold
vector 313 scenario.client3.tcp.conn-39 cwnd:vector ETV
attr interpolationmode sample-hold
vector 314 scenario.client3.tcp.conn-39 ssthresh:vector ETV
attr interpolationmode sample-hold
vector 315 scenario.client3.tcp.conn-39 dupAcks:vector ETV
attr interpolationmode sample-hold
vector 316 scenario.client1.tcp.conn-41 tcpRcvQueueBytes:vector ETV
attr interpolationmode sample-hold
vector 317 scenario.client1.tcp.conn-41 rcvAdv:vector ETV
attr interpolationmode sample-hold
vector 318 scenario.client1.tcp.conn-41 rcvWnd:vector ETV
attr interpolationmode sample-hold
vector 319 scenario.client1.tcp.conn-41 sndAck:vector ETV
attr interpolationmode sample-hold
vector 320 scenario.client1.ppp[1].ppp rcvdPkFromHl:vector(packetBytes) ETV
attr interpolationmode none
attr source packetReceivedFromUpper
attr title "packets received from higher layer, vector(packetBytes)"
vector 321 scenario.client1.ppp[1].ppp.queue packetPushed:vector(packetBytes) ETV
attr interpolationmode none
attr title "packet pushed, vector(packetBytes)"
vector 322 scenario.client1.ppp[1].ppp.queue queueLength:vector ETV
attr interpolationmode sample-hold
attr source "count(packetPushed) - count(packetPopped) - count(packetRemoved) - count(packetDropped)"
attr title "queue length, vector"
vector 323 scenario.client1.ppp[1].ppp.queue packetPopped:vector(packetBytes) ETV
attr interpolationmode none
attr title "packet popped, vector(packetBytes)"
vector 324 scenario.client1.ppp[1].ppp.queue queueingTime:vector ETV
attr interpolationmode none
attr source queueingTime(packetPopped)
attr title "queueing times, vector"
attr unit s
vector 325 scenario.client1.ppp[1].ppp txPk:vector(packetBytes) ETV
attr interpolationmode none
attr source packetSentToLower
attr title "packets transmitted, vector(packetBytes)"
vector 326 scenario.client2.ppp[1].ppp rxPkOk:vector(packetBytes) ETV
attr interpolationmode none
attr source rxPkOk
attr title "packets received OK, vector(packetBytes)"
vector 327 scenario.client2.ppp[1].ppp passedUpPk:vector(packetBytes) ETV
attr interpolationmode none
attr source packetSentToUpper
attr title "packets passed to higher layer, vector(packetBytes)"
vector 328 scenario.client2.tcp.conn-42 rcvAdv:vector ETV
attr interpolationmode sample-hold
vector 329 scenario.client2.tcp.conn-42 sndWnd:vector ETV
attr interpolationmode sample-hold
vector 330 scenario.client2.tcp.conn-42 tcpRcvQueueBytes:vector ETV
attr interpolationmode sample-hold
vector 331 scenario.client2.tcp.conn-42 rcvWnd:vector ETV
attr interpolationmode sample-hold
vector 332 scenario.client2.tcp.conn-42 sndAck:vector ETV
attr interpolationmode sample-hold
vector 333 scenario.client2.ppp[1].ppp rcvdPkFromHl:vector(packetBytes) ETV
attr interpolationmode none
attr source packetReceivedFromUpper
attr title "packets received from higher layer, vector(packetBytes)"
vector 334 scenario.client2.ppp[1].ppp.queue packetPushed:vector(packetBytes) ETV
attr interpolationmode none
attr title "packet pushed, vector(packetBytes)"
vector 335 scenario.client2.ppp[1].ppp.queue queueLength:vector ETV
attr interpolationmode sample-hold
attr source "count(packetPushed) - count(packetPopped) - count(packetRemoved) - count(packetDropped)"
attr title "queue length, vector"
vector 336 scenario.client2.ppp[1].ppp.queue packetPopped:vector(packetBytes) ETV
attr interpolationmode none
attr title "packet popped, vector(packetBytes)"
vector 337 scenario.client2.ppp[1].ppp.queue queueingTime:vector ETV
attr interpolationmode none
attr source queueingTime(packetPopped)
attr title "queueing times, vector"
attr unit s
vector 338 scenario.client2.ppp[1].ppp txPk:vector(packetBytes) ETV
attr interpolationmode none
attr source packetSentToLower
attr title "packets transmitted, vector(packetBytes)"
vector 339 scenario.client1.ppp[1].ppp rxPkOk:vector(packetBytes) ETV
attr interpolationmode none
attr source rxPkOk
attr title "packets received OK, vector(packetBytes)"
vector 340 scenario.client1.ppp[1].ppp passedUpPk:vector(packetBytes) ETV
attr interpolationmode none
attr source packetSentToUpper
attr title "packets passed to higher layer, vector(packetBytes)"
vector 341 scenario.client1.tcp.conn-41 rcvSeq:vector ETV
attr interpolationmode sample-hold
vector 342 scenario.client1.tcp.conn-41 rcvAck:vector ETV
attr interpolationmode sample-hold
vector 343 scenario.client1.tcp.conn-41 sndWnd:vector ETV
attr interpolationmode sample-hold
vector 344 scenario.client1.tcp.conn-41 unacked:vector ETV
attr interpolationmode sample-hold
vector 345 scenario.client2.tcp.conn-42 rcvSeq:vector ETV
attr interpolationmode sample-hold
vector 346 scenario.client2.tcp.conn-42 rcvAck:vector ETV
attr interpolationmode sample-hold
vector 347 scenario.client2.tcp.conn-42 unacked:vector ETV
attr interpolationmode sample-hold
vector 348 scenario.client2.tcp.conn-42 cwnd:vector ETV
attr interpolationmode sample-hold
vector 349 scenario.client2.tcp.conn-42 ssthresh:vector ETV
attr interpolationmode sample-hold
vector 350 scenario.client2.tcp.conn-42 dupAcks:vector ETV
attr interpolationmode sample-hold
vector 351 scenario.client1.tcp.conn-41 rtt:vector ETV
attr interpolationmode sample-hold
vector 352 scenario.client1.tcp.conn-41 srtt:vector ETV
attr interpolationmode sample-hold
vector 353 scenario.client1.tcp.conn-41 rttvar:vector ETV
attr interpolationmode sample-hold
vector 354 scenario.client1.tcp.conn-41 rto:vector ETV
attr interpolationmode sample-hold
vector 355 scenario.client1.tcp.conn-41 cwnd:vector ETV
attr interpolationmode sample-hold
vector 356 scenario.client1.tcp.conn-41 ssthresh:vector ETV
attr interpolationmode sample-hold
vector 357 scenario.client1.tcp.conn-41 dupAcks:vector ETV
attr interpolationmode sample-hold
vector 358 scenario.client2.tcp.conn-43 tcpRcvQueueBytes:vector ETV
attr interpolationmode sample-hold
vector 359 scenario.client2.tcp.conn-43 rcvAdv:vector ETV
attr interpolationmode sample-hold
vector 360 scenario.client2.tcp.conn-43 rcvWnd:vector ETV
attr interpolationmode sample-hold
vector 361 scenario.client2.tcp.conn-43 sndAck:vector ETV
attr interpolationmode sample-hold
vector 362 scenario.client3.tcp.conn-44 rcvAdv:vector ETV
attr interpolationmode sample-hold
vector 363 scenario.client3.tcp.conn-44 sndWnd:vector ETV
attr interpolationmode sample-hold
vector 364 scenario.client3.tcp.conn-44 tcpRcvQueueBytes:vector ETV
attr interpolationmode sample-hold
vector 365 scenario.client3.tcp.conn-44 rcvWnd:vector ETV
attr interpolationmode sample-hold
vector 366 scenario.client3.tcp.conn-44 sndAck:vector ETV
attr interpolationmode sample-hold
vector 367 scenario.client2.tcp.conn-43 rcvSeq:vector ETV
attr interpolationmode sample-hold
vector 368 scenario.client2.tcp.conn-43 rcvAck:vector ETV
attr interpolationmode sample-hold
vector 369 scenario.client2.tcp.conn-43 sndWnd:vector ETV
attr interpolationmode sample-hold
vector 370 scenario.client2.tcp.conn-43 unacked:vector ETV
attr interpolationmode sample-hold
vector 371 scenario.client3.tcp.conn-44 rcvSeq:vector ETV
attr interpolationmode sample-hold
vector 372 scenario.client3.tcp.conn-44 rcvAck:vector ETV
attr interpolationmode sample-hold
vector 373 scenario.client3.tcp.conn-44 unacked:vector ETV
attr interpolationmode sample-hold
vector 374 scenario.client3.tcp.conn-44 cwnd:vector ETV
attr interpolationmode sample-hold
vector 375 scenario.client3.tcp.conn-44 ssthresh:vector ETV
attr interpolationmode sample-hold
vector 376 scenario.client3.tcp.conn-44 dupAcks:vector ETV
attr interpolationmode sample-hold
vector 377 scenario.client2.tcp.conn-43 rtt:vector ETV
attr interpolationmode sample-hold
vector 378 scenario.client2.tcp.conn-43 srtt:vector ETV
attr interpolationmode sample-hold
vector 379 scenario.client2.tcp.conn-43 rttvar:vector ETV
attr interpolationmode sample-hold
vector 380 scenario.client2.tcp.conn-43 rto:vector ETV
attr interpolationmode sample-hold
vector 381 scenario.client2.tcp.conn-43 cwnd:vector ETV
attr interpolationmode sample-hold
vector 382 scenario.client2.tcp.conn-43 ssthresh:vector ETV
attr interpolationmode sample-hold
vector 383 scenario.client2.tcp.conn-43 dupAcks:vector ETV
attr interpolationmode sample-hold
vector 384 scenario.client2.tcp.conn-45 tcpRcvQueueBytes:vector ETV
attr interpolationmode sample-hold
vector 385 scenario.client2.tcp.conn-45 rcvAdv:vector ETV
attr interpolationmode sample-hold
vector 386 scenario.client2.tcp.conn-45 rcvWnd:vector ETV
attr interpolationmode sample-hold
vector 387 scenario.client2.tcp.conn-45 sndAck:vector ETV
attr interpolationmode sample-hold
vector 388 scenario.client1.tcp.conn-46 rcvAdv:vector ETV
attr interpolationmode sample-hold
vector 389 scenario.client1.tcp.conn-46 sndWnd:vector ETV
attr interpolationmode sample-hold
vector 390 scenario.client1.tcp.conn-46 tcpRcvQueueBytes:vector ETV
attr interpolationmode sample-hold
vector 391 scenario.client1.tcp.conn-46 rcvWnd:vector ETV
attr interpolationmode sample-hold
vector 392 scenario.client1.tcp.conn-46 sndAck:vector ETV
attr interpolationmode sample-hold
vector 393 scenario.client2.tcp.conn-45 rcvSeq:vector ETV
attr interpolationmode sample-hold
vector 394 scenario.client2.tcp.conn-45 rcvAck:vector ETV
attr interpolationmode sample-hold
vector 395 scenario.client2.tcp.conn-45 sndWnd:vector ETV
attr interpolationmode sample-hold
vector 396 scenario.client2.tcp.conn-45 unacked:vector ETV
attr interpolationmode sample-hold
vector 397 scenario.client1.tcp.conn-46 rcvSeq:vector ETV
attr interpolationmode sample-hold
vector 398 scenario.client1.tcp.conn-46 rcvAck:vector ETV
attr interpolationmode sample-hold
vector 399 scenario.client1.tcp.conn-46 unacked:vector ETV
attr interpolationmode sample-hold
vector 400 scenario.client1.tcp.conn-46 cwnd:vector ETV
attr interpolationmode sample-hold
vector 401 scenario.client1.tcp.conn-46 ssthresh:vector ETV
attr interpolationmode sample-hold
vector 402 scenario.client1.tcp.conn-46 dupAcks:vector ETV
attr interpolationmode sample-hold
vector 403 scenario.client2.tcp.conn-45 rtt:vector ETV
attr interpolationmode sample-hold
vector 404 scenario.client2.tcp.conn-45 srtt:vector ETV
attr interpolationmode sample-hold
vector 405 scenario.client2.tcp.conn-45 rttvar:vector ETV
attr interpolationmode sample-hold
vector 406 scenario.client2.tcp.conn-45 rto:vector ETV
attr interpolationmode sample-hold
vector 407 scenario.client2.tcp.conn-45 cwnd:vector ETV
attr interpolationmode sample-hold
vector 408 scenario.client2.tcp.conn-45 ssthresh:vector ETV
attr interpolationmode sample-hold
vector 409 scenario.client2.tcp.conn-45 dupAcks:vector ETV
attr interpolationmode sample-hold
vector 410 scenario.client1.tcp.conn-47 tcpRcvQueueBytes:vector ETV
attr interpolationmode sample-hold
vector 411 scenario.client1.tcp.conn-47 rcvAdv:vector ETV
attr interpolationmode sample-hold
vector 412 scenario.client1.tcp.conn-47 rcvWnd:vector ETV
attr interpolationmode sample-hold
vector 413 scenario.client1.tcp.conn-47 sndAck:vector ETV
attr interpolationmode sample-hold
vector 414 scenario.client3.tcp.conn-48 rcvAdv:vector ETV
attr interpolationmode sample-hold
vector 415 scenario.client3.tcp.conn-48 sndWnd:vector ETV
attr interpolationmode sample-hold
vector 416 scenario.client3.tcp.conn-48 tcpRcvQueueBytes:vector ETV
attr interpolationmode sample-hold
vector 417 scenario.client3.tcp.conn-48 rcvWnd:vector ETV
attr interpolationmode sample-hold
vector 418 scenario.client3.tcp.conn-48 sndAck:vector ETV
attr interpolationmode sample-hold
vector 419 scenario.client1.tcp.conn-47 rcvSeq:vector ETV
attr interpolationmode sample-hold
vector 420 scenario.client1.tcp.conn-47 rcvAck:vector ETV
attr interpolationmode sample-hold
vector 421 scenario.client1.tcp.conn-47 sndWnd:vector ETV
attr interpolationmode sample-hold
vector 422 scenario.client1.tcp.conn-47 unacked:vector ETV
attr interpolationmode sample-hold
vector 423 scenario.client3.tcp.conn-48 rcvSeq:vector ETV
attr interpolationmode sample-hold
vector 424 scenario.client3.tcp.conn-48 rcvAck:vector ETV
attr interpolationmode sample-hold
vector 425 scenario.client3.tcp.conn-48 unacked:vector ETV
attr interpolationmode sample-hold
vector 426 scenario.client3.tcp.conn-48 cwnd:vector ETV
attr interpolationmode sample-hold
vector 427 scenario.client3.tcp.conn-48 ssthresh:vector ETV
attr interpolationmode sample-hold
vector 428 scenario.client3.tcp.conn-48 dupAcks:vector ETV
attr interpolationmode sample-hold
vector 429 scenario.client1.tcp.conn-47 rtt:vector ETV
attr interpolationmode sample-hold
vector 430 scenario.client1.tcp.conn-47 srtt:vector ETV
attr interpolationmode sample-hold
vector 431 scenario.client1.tcp.conn-47 rttvar:vector ETV
attr interpolationmode sample-hold
vector 432 scenario.client1.tcp.conn-47 rto:vector ETV
attr interpolationmode sample-hold
vector 433 scenario.client1.tcp.conn-47 cwnd:vector ETV
attr interpolationmode sample-hold
vector 434 scenario.client1.tcp.conn-47 ssthresh:vector ETV
attr interpolationmode sample-hold
vector 435 scenario.client1.tcp.conn-47 dupAcks:vector ETV
attr interpolationmode sample-hold
vector 436 scenario.client2.tcp.conn-49 tcpRcvQueueBytes:vector ETV
attr interpolationmode sample-hold
vector 437 scenario.client2.tcp.conn-49 rcvAdv:vector ETV
attr interpolationmode sample-hold
vector 438 scenario.client2.tcp.conn-49 rcvWnd:vector ETV
attr interpolationmode sample-hold
vector 439 scenario.client2.tcp.conn-49 sndAck:vector ETV
attr interpolationmode sample-hold
vector 440 scenario.client3.tcp.conn-50 tcpRcvQueueBytes:vector ETV
attr interpolationmode sample-hold
vector 441 scenario.client3.tcp.conn-50 rcvAdv:vector ETV
attr interpolationmode sample-hold
vector 442 scenario.client3.tcp.conn-50 rcvWnd:vector ETV
attr interpolationmode sample-hold
vector 443 scenario.client3.tcp.conn-50 sndAck:vector ETV
attr interpolationmode sample-hold
vector 444 scenario.client2.ppp[3].ppp rcvdPkFromHl:vector(packetBytes) ETV
attr interpolationmode none
attr source packetReceivedFromUpper
attr title "packets received from higher layer, vector(packetBytes)"
vector 445 scenario.client2.ppp[3].ppp.queue packetPushed:vector(packetBytes) ETV
attr interpolationmode none
attr title "packet pushed, vector(packetBytes)"
vector 446 scenario.client2.ppp[3].ppp.queue queueLength:vector ETV
attr interpolationmode sample-hold
attr source "count(packetPushed) - count(packetPopped) - count(packetRemoved) - count(packetDropped)"
attr title "queue length, vector"
vector 447 scenario.client2.ppp[3].ppp.queue packetPopped:vector(packetBytes) ETV
attr interpolationmode none
attr title "packet popped, vector(packetBytes)"
vector 448 scenario.client2.ppp[3].ppp.queue queueingTime:vector ETV
attr interpolationmode none
attr source queueingTime(packetPopped)
attr title "queueing times, vector"
attr unit s
vector 449 scenario.client2.ppp[3].ppp txPk:vector(packetBytes) ETV
attr interpolationmode none
attr source packetSentToLower
attr title "packets transmitted, vector(packetBytes)"
vector 450 scenario.client3.ppp[3].ppp rcvdPkFromHl:vector(packetBytes) ETV
attr interpolationmode none
attr source packetReceivedFromUpper
attr title "packets received from higher layer, vector(packetBytes)"
vector 451 scenario.client3.ppp[3].ppp.queue packetPushed:vector(packetBytes) ETV
attr interpolationmode none
attr title "packet pushed, vector(packetBytes)"
vector 452 scenario.client3.ppp[3].ppp.queue queueLength:vector ETV
attr interpolationmode sample-hold
attr source "count(packetPushed) - count(packetPopped) - count(packetRemoved) - count(packetDropped)"
attr title "queue length, vector"
vector 453 scenario.client3.ppp[3].ppp.queue packetPopped:vector(packetBytes) ETV
attr interpolationmode none
attr title "packet popped, vector(packetBytes)"
vector 454 scenario.client3.ppp[3].ppp.queue queueingTime:vector ETV
attr interpolationmode none
attr source queueingTime(packetPopped)
attr title "queueing times, vector"
attr unit s
vector 455 scenario.client3.ppp[3].ppp txPk:vector(packetBytes) ETV
attr interpolationmode none
attr source packetSentToLower
attr title "packets transmitted, vector(packetBytes)"
vector 456 scenario.client4.ppp[2].ppp rxPkOk:vector(packetBytes) ETV
attr interpolationmode none
attr source rxPkOk
attr title "packets received OK, vector(packetBytes)"
vector 457 scenario.client4.ppp[2].ppp passedUpPk:vector(packetBytes) ETV
attr interpolationmode none
attr source packetSentToUpper
attr title "packets passed to higher layer, vector(packetBytes)"
vector 458 scenario.client4.ppp[3].ppp rxPkOk:vector(packetBytes) ETV
attr interpolationmode none
attr source rxPkOk
attr title "packets received OK, vector(packetBytes)"
vector 459 scenario.client4.ppp[3].ppp passedUpPk:vector(packetBytes) ETV
attr interpolationmode none
attr source packetSentToUpper
attr title "packets passed to higher layer, vector(packetBytes)"
vector 460 scenario.client4.tcp.conn-4 rcvSeq:vector ETV
attr interpolationmode sample-hold
vector 461 scenario.client4.tcp.conn-4 rcvAck:vector ETV
attr interpolationmode sample-hold
vector 462 scenario.client4.tcp.conn-51 rcvAdv:vector ETV
attr interpolationmode sample-hold
vector 463 scenario.client4.tcp.conn-51 sndWnd:vector ETV
attr interpolationmode sample-hold
vector 464 scenario.client4.tcp.conn-51 tcpRcvQueueBytes:vector ETV
attr interpolationmode sample-hold
vector 465 scenario.client4.tcp.conn-51 rcvWnd:vector ETV
attr interpolationmode sample-hold
vector 466 scenario.client4.tcp.conn-51 sndAck:vector ETV
attr interpolationmode sample-hold
vector 467 scenario.client4.tcp.conn-52 rcvAdv:vector ETV
attr interpolationmode sample-hold
vector 468 scenario.client4.tcp.conn-52 sndWnd:vector ETV
attr interpolationmode sample-hold
vector 469 scenario.client4.tcp.conn-52 tcpRcvQueueBytes:vector ETV
attr interpolationmode sample-hold
vector 470 scenario.client4.tcp.conn-52 rcvWnd:vector ETV
attr interpolationmode sample-hold
vector 471 scenario.client4.tcp.conn-52 sndAck:vector ETV
attr interpolationmode sample-hold
vector 472 scenario.client4.ppp[2].ppp rcvdPkFromHl:vector(packetBytes) ETV
attr interpolationmode none
attr source packetReceivedFromUpper
attr title "packets received from higher layer, vector(packetBytes)"
vector 473 scenario.client4.ppp[2].ppp.queue packetPushed:vector(packetBytes) ETV
attr interpolationmode none
attr title "packet pushed, vector(packetBytes)"
vector 474 scenario.client4.ppp[2].ppp.queue queueLength:vector ETV
attr interpolationmode sample-hold
attr source "count(packetPushed) - count(packetPopped) - count(packetRemoved) - count(packetDropped)"
attr title "queue length, vector"
vector 475 scenario.client4.ppp[2].ppp.queue packetPopped:vector(packetBytes) ETV
attr interpolationmode none
attr title "packet popped, vector(packetBytes)"
vector 476 scenario.client4.ppp[2].ppp.queue queueingTime:vector ETV
attr interpolationmode none
attr source queueingTime(packetPopped)
attr title "queueing times, vector"
attr unit s
vector 477 scenario.client4.ppp[2].ppp txPk:vector(packetBytes) ETV
attr interpolationmode none
attr source packetSentToLower
attr title "packets transmitted, vector(packetBytes)"
vector 478 scenario.client4.ppp[3].ppp rcvdPkFromHl:vector(packetBytes) ETV
attr interpolationmode none
attr source packetReceivedFromUpper
attr title "packets received from higher layer, vector(packetBytes)"
vector 479 scenario.client4.ppp[3].ppp.queue packetPushed:vector(packetBytes) ETV
attr interpolationmode none
attr title "packet pushed, vector(packetBytes)"
vector 480 scenario.client4.ppp[3].ppp.queue queueLength:vector ETV
attr interpolationmode sample-hold
attr source "count(packetPushed) - count(packetPopped) - count(packetRemoved) - count(packetDropped)"
attr title "queue length, vector"
vector 481 scenario.client4.ppp[3].ppp.queue packetPopped:vector(packetBytes) ETV
attr interpolationmode none
attr title "packet popped, vector(packetBytes)"
vector 482 scenario.client4.ppp[3].ppp.queue queueingTime:vector ETV
attr interpolationmode none
attr source queueingTime(packetPopped)
attr title "queueing times, vector"
attr unit s
vector 483 scenario.client4.ppp[3].ppp txPk:vector(packetBytes) ETV
attr interpolationmode none
attr source packetSentToLower
attr title "packets transmitted, vector(packetBytes)"
vector 484 scenario.client2.ppp[3].ppp rxPkOk:vector(packetBytes) ETV
attr interpolationmode none
attr source rxPkOk
attr title "packets received OK, vector(packetBytes)"
vector 485 scenario.client2.ppp[3].ppp passedUpPk:vector(packetBytes) ETV
attr interpolationmode none
attr source packetSentToUpper
attr title "packets passed to higher layer, vector(packetBytes)"
vector 486 scenario.client3.ppp[3].ppp rxPkOk:vector(packetBytes) ETV
attr interpolationmode none
attr source rxPkOk
attr title "packets received OK, vector(packetBytes)"
vector 487 scenario.client3.ppp[3].ppp passedUpPk:vector(packetBytes) ETV
attr interpolationmode none
attr source packetSentToUpper
attr title "packets passed to higher layer, vector(packetBytes)"
vector 488 scenario.client2.tcp.conn-49 rcvSeq:vector ETV
attr interpolationmode sample-hold
vector 489 scenario.client2.tcp.conn-49 rcvAck:vector ETV
attr interpolationmode sample-hold
vector 490 scenario.client2.tcp.conn-49 sndWnd:vector ETV
attr interpolationmode sample-hold
vector 491 scenario.client2.tcp.conn-49 unacked:vector ETV
attr interpolationmode sample-hold
vector 492 scenario.client3.tcp.conn-50 rcvSeq:vector ETV
attr interpolationmode sample-hold
vector 493 scenario.client3.tcp.conn-50 rcvAck:vector ETV
attr interpolationmode sample-hold
vector 494 scenario.client3.tcp.conn-50 sndWnd:vector ETV
attr interpolationmode sample-hold
vector 495 scenario.client3.tcp.conn-50 unacked:vector ETV
attr interpolationmode sample-hold
vector 496 scenario.client4.tcp.conn-51 rcvSeq:vector ETV
attr interpolationmode sample-hold
vector 497 scenario.client4.tcp.conn-51 rcvAck:vector ETV
attr interpolationmode sample-hold
vector 498 scenario.client4.tcp.conn-51 unacked:vector ETV
attr interpolationmode sample-hold
vector 499 scenario.client4.tcp.conn-51 cwnd:vector ETV
attr interpolationmode sample-hold
vector 500 scenario.client4.tcp.conn-51 ssthresh:vector ETV
attr interpolationmode sample-hold
vector 501 scenario.client4.tcp.conn-51 dupAcks:vector ETV
attr interpolationmode sample-hold
vector 502 scenario.client4.tcp.conn-52 rcvSeq:vector ETV
attr interpolationmode sample-hold
vector 503 scenario.client4.tcp.conn-52 rcvAck:vector ETV
attr interpolationmode sample-hold
vector 504 scenario.client4.tcp.conn-52 unacked:vector ETV
attr interpolationmode sample-hold
vector 505 scenario.client4.tcp.conn-52 cwnd:vector ETV
attr interpolationmode sample-hold
vector 506 scenario.client4.tcp.conn-52 ssthresh:vector ETV
attr interpolationmode sample-hold
vector 507 scenario.client4.tcp.conn-52 dupAcks:vector ETV
attr interpolationmode sample-hold
vector 508 scenario.client2.tcp.conn-49 rtt:vector ETV
attr interpolationmode sample-hold
vector 509 scenario.client2.tcp.conn-49 srtt:vector ETV
attr interpolationmode sample-hold
vector 510 scenario.client2.tcp.conn-49 rttvar:vector ETV
attr interpolationmode sample-hold
vector 511 scenario.client2.tcp.conn-49 rto:vector ETV
attr interpolationmode sample-hold
vector 512 scenario.client2.tcp.conn-49 cwnd:vector ETV
attr interpolationmode sample-hold
vector 513 scenario.client2.tcp.conn-49 ssthresh:vector ETV
attr interpolationmode sample-hold
vector 514 scenario.client2.tcp.conn-49 dupAcks:vector ETV
attr interpolationmode sample-hold
vector 515 scenario.client3.tcp.conn-50 rtt:vector ETV
attr interpolationmode sample-hold
vector 516 scenario.client3.tcp.conn-50 srtt:vector ETV
attr interpolationmode sample-hold
vector 517 scenario.client3.tcp.conn-50 rttvar:vector ETV
attr interpolationmode sample-hold
vector 518 scenario.client3.tcp.conn-50 rto:vector ETV
attr interpolationmode sample-hold
vector 519 scenario.client3.tcp.conn-50 cwnd:vector ETV
attr interpolationmode sample-hold
vector 520 scenario.client3.tcp.conn-50 ssthresh:vector ETV
attr interpolationmode sample-hold
vector 521 scenario.client3.tcp.conn-50 dupAcks:vector ETV
attr interpolationmode sample-hold
vector 522 scenario.client0.tcp.conn-53 tcpRcvQueueBytes:vector ETV
attr interpolationmode sample-hold
vector 523 scenario.client0.tcp.conn-53 rcvAdv:vector ETV
attr interpolationmode sample-hold
vector 524 scenario.client0.tcp.conn-53 rcvWnd:vector ETV
attr interpolationmode sample-hold
vector 525 scenario.client0.tcp.conn-53 sndAck:vector ETV
attr interpolationmode sample-hold
vector 526 scenario.client0.ppp[3].ppp rcvdPkFromHl:vector(packetBytes) ETV
attr interpolationmode none
attr source packetReceivedFromUpper
attr title "packets received from higher layer, vector(packetBytes)"
vector 527 scenario.client0.ppp[3].ppp.queue packetPushed:vector(packetBytes) ETV
attr interpolationmode none
attr title "packet pushed, vector(packetBytes)"
vector 528 scenario.client0.ppp[3].ppp.queue queueLength:vector ETV
attr interpolationmode sample-hold
attr source "count(packetPushed) - count(packetPopped) - count(packetRemoved) - count(packetDropped)"
attr title "queue length, vector"
vector 529 scenario.client0.ppp[3].ppp.queue packetPopped:vector(packetBytes) ETV
attr interpolationmode none
attr title "packet popped, vector(packetBytes)"
vector 530 scenario.client0.ppp[3].ppp.queue queueingTime:vector ETV
attr interpolationmode none
attr source queueingTime(packetPopped)
attr title "queueing times, vector"
attr unit s
vector 531 scenario.client0.ppp[3].ppp txPk:vector(packetBytes) ETV
attr interpolationmode none
attr source packetSentToLower
attr title "packets transmitted, vector(packetBytes)"
vector 532 scenario.client1.tcp.conn-54 tcpRcvQueueBytes:vector ETV
attr interpolationmode sample-hold
vector 533 scenario.client1.tcp.conn-54 rcvAdv:vector ETV
attr interpolationmode sample-hold
vector 534 scenario.client1.tcp.conn-54 rcvWnd:vector ETV
attr interpolationmode sample-hold
vector 535 scenario.client1.tcp.conn-54 sndAck:vector ETV
attr interpolationmode sample-hold
vector 536 scenario.client1.ppp[3].ppp rcvdPkFromHl:vector(packetBytes) ETV
attr interpolationmode none
attr source packetReceivedFromUpper
attr title "packets received from higher layer, vector(packetBytes)"
vector 537 scenario.client1.ppp[3].ppp.queue packetPushed:vector(packetBytes) ETV
attr interpolationmode none
attr title "packet pushed, vector(packetBytes)"
vector 538 scenario.client1.ppp[3].ppp.queue queueLength:vector ETV
attr interpolationmode sample-hold
attr source "count(packetPushed) - count(packetPopped) - count(packetRemoved) - count(packetDropped)"
attr title "queue length, vector"
vector 539 scenario.client1.ppp[3].ppp.queue packetPopped:vector(packetBytes) ETV
attr interpolationmode none
attr title "packet popped, vector(packetBytes)"
vector 540 scenario.client1.ppp[3].ppp.queue queueingTime:vector ETV
attr interpolationmode none
attr source queueingTime(packetPopped)
attr title "queueing times, vector"
attr unit s
vector 541 scenario.client1.ppp[3].ppp txPk:vector(packetBytes) ETV
attr interpolationmode none
attr source packetSentToLower
attr title "packets transmitted, vector(packetBytes)"
vector 542 scenario.client4.ppp[0].ppp rxPkOk:vector(packetBytes) ETV
attr interpolationmode none
attr source rxPkOk
attr title "packets received OK, vector(packetBytes)"
vector 543 scenario.client4.ppp[0].ppp passedUpPk:vector(packetBytes) ETV
attr interpolationmode none
attr source packetSentToUpper
attr title "packets passed to higher layer, vector(packetBytes)"
vector 544 scenario.client4.tcp.conn-55 rcvAdv:vector ETV
attr interpolationmode sample-hold
vector 545 scenario.client4.tcp.conn-55 sndWnd:vector ETV
attr interpolationmode sample-hold
vector 546 scenario.client4.tcp.conn-55 tcpRcvQueueBytes:vector ETV
attr interpolationmode sample-hold
vector 547 scenario.client4.tcp.conn-55 rcvWnd:vector ETV
attr interpolationmode sample-hold
vector 548 scenario.client4.tcp.conn-55 sndAck:vector ETV
attr interpolationmode sample-hold
vector 549 scenario.client4.ppp[0].ppp rcvdPkFromHl:vector(packetBytes) ETV
attr interpolationmode none
attr source packetReceivedFromUpper
attr title "packets received from higher layer, vector(packetBytes)"
vector 550 scenario.client4.ppp[0].ppp.queue packetPushed:vector(packetBytes) ETV
attr interpolationmode none
attr title "packet pushed, vector(packetBytes)"
vector 551 scenario.client4.ppp[0].ppp.queue queueLength:vector ETV
attr interpolationmode sample-hold
attr source "count(packetPushed) - count(packetPopped) - count(packetRemoved) - count(packetDropped)"
attr title "queue length, vector"
vector 552 scenario.client4.ppp[0].ppp.queue packetPopped:vector(packetBytes) ETV
attr interpolationmode none
attr title "packet popped, vector(packetBytes)"
vector 553 scenario.client4.ppp[0].ppp.queue queueingTime:vector ETV
attr interpolationmode none
attr source queueingTime(packetPopped)
attr title "queueing times, vector"
attr unit s
vector 554 scenario.client4.ppp[0].ppp txPk:vector(packetBytes) ETV
attr interpolationmode none
attr source packetSentToLower
attr title "packets transmitted, vector(packetBytes)"
vector 555 scenario.client4.ppp[1].ppp rxPkOk:vector(packetBytes) ETV
attr interpolationmode none
attr source rxPkOk
attr title "packets received OK, vector(packetBytes)"
vector 556 scenario.client4.ppp[1].ppp passedUpPk:vector(packetBytes) ETV
attr interpolationmode none
attr source packetSentToUpper
attr title "packets passed to higher layer, vector(packetBytes)"
vector 557 scenario.client4.tcp.conn-56 rcvAdv:vector ETV
attr interpolationmode sample-hold
vector 558 scenario.client4.tcp.conn-56 sndWnd:vector ETV
attr interpolationmode sample-hold
vector 559 scenario.client4.tcp.conn-56 tcpRcvQueueBytes:vector ETV
attr interpolationmode sample-hold
vector 560 scenario.client4.tcp.conn-56 rcvWnd:vector ETV
attr interpolationmode sample-hold
vector 561 scenario.client4.tcp.conn-56 sndAck:vector ETV
attr interpolationmode sample-hold
vector 562 scenario.client4.ppp[1].ppp rcvdPkFromHl:vector(packetBytes) ETV
attr interpolationmode none
attr source packetReceivedFromUpper
attr title "packets received from higher layer, vector(packetBytes)"
vector 563 scenario.client4.ppp[1].ppp.queue packetPushed:vector(packetBytes) ETV
attr interpolationmode none
attr title "packet pushed, vector(packetBytes)"
vector 564 scenario.client4.ppp[1].ppp.queue queueLength:vector ETV
attr interpolationmode sample-hold
attr source "count(packetPushed) - count(packetPopped) - count(packetRemoved) - count(packetDropped)"
attr title "queue length, vector"
vector 565 scenario.client4.ppp[1].ppp.queue packetPopped:vector(packetBytes) ETV
attr interpolationmode none
attr title "packet popped, vector(packetBytes)"
vector 566 scenario.client4.ppp[1].ppp.queue queueingTime:vector ETV
attr interpolationmode none
attr source queueingTime(packetPopped)
attr title "queueing times, vector"
attr unit s
vector 567 scenario.client4.ppp[1].ppp txPk:vector(packetBytes) ETV
attr interpolationmode none
attr source packetSentToLower
attr title "packets transmitted, vector(packetBytes)"
vector 568 scenario.client0.ppp[3].ppp rxPkOk:vector(packetBytes) ETV
attr interpolationmode none
attr source rxPkOk
attr title "packets received OK, vector(packetBytes)"
vector 569 scenario.client0.ppp[3].ppp passedUpPk:vector(packetBytes) ETV
attr interpolationmode none
attr source packetSentToUpper
attr title "packets passed to higher layer, vector(packetBytes)"
vector 570 scenario.client0.tcp.conn-53 rcvSeq:vector ETV
attr interpolationmode sample-hold
vector 571 scenario.client0.tcp.conn-53 rcvAck:vector ETV
attr interpolationmode sample-hold
vector 572 scenario.client0.tcp.conn-53 sndWnd:vector ETV
attr interpolationmode sample-hold
vector 573 scenario.client0.tcp.conn-53 unacked:vector ETV
attr interpolationmode sample-hold
vector 574 scenario.client1.ppp[3].ppp rxPkOk:vector(packetBytes) ETV
attr interpolationmode none
attr source rxPkOk
attr title "packets received OK, vector(packetBytes)"
vector 575 scenario.client1.ppp[3].ppp passedUpPk:vector(packetBytes) ETV
attr interpolationmode none
attr source packetSentToUpper
attr title "packets passed to higher layer, vector(packetBytes)"
vector 576 scenario.client1.tcp.conn-54 rcvSeq:vector ETV
attr interpolationmode sample-hold
vector 577 scenario.client1.tcp.conn-54 rcvAck:vector ETV
attr interpolationmode sample-hold
vector 578 scenario.client1.tcp.conn-54 sndWnd:vector ETV
attr interpolationmode sample-hold
vector 579 scenario.client1.tcp.conn-54 unacked:vector ETV
attr interpolationmode sample-hold
vector 580 scenario.client4.tcp.conn-55 rcvSeq:vector ETV
attr interpolationmode sample-hold
vector 581 scenario.client4.tcp.conn-55 rcvAck:vector ETV
attr interpolationmode sample-hold
vector 582 scenario.client4.tcp.conn-55 unacked:vector ETV
attr interpolationmode sample-hold
vector 583 scenario.client4.tcp.conn-55 cwnd:vector ETV
attr interpolationmode sample-hold
vector 584 scenario.client4.tcp.conn-55 ssthresh:vector ETV
attr interpolationmode sample-hold
vector 585 scenario.client4.tcp.conn-55 dupAcks:vector ETV
attr interpolationmode sample-hold
vector 586 scenario.client4.tcp.conn-56 rcvSeq:vector ETV
attr interpolationmode sample-hold
vector 587 scenario.client4.tcp.conn-56 rcvAck:vector ETV
attr interpolationmode sample-hold
vector 588 scenario.client4.tcp.conn-56 unacked:vector ETV
attr interpolationmode sample-hold
vector 589 scenario.client4.tcp.conn-56 cwnd:vector ETV
attr interpolationmode sample-hold
vector 590 scenario.client4.tcp.conn-56 ssthresh:vector ETV
attr interpolationmode sample-hold
vector 591 scenario.client4.tcp.conn-56 dupAcks:vector ETV
attr interpolationmode sample-hold
vector 592 scenario.client0.tcp.conn-53 rtt:vector ETV
attr interpolationmode sample-hold
vector 593 scenario.client0.tcp.conn-53 srtt:vector ETV
attr interpolationmode sample-hold
vector 594 scenario.client0.tcp.conn-53 rttvar:vector ETV
attr interpolationmode sample-hold
vector 595 scenario.client0.tcp.conn-53 rto:vector ETV
attr interpolationmode sample-hold
vector 596 scenario.client0.tcp.conn-53 cwnd:vector ETV
attr interpolationmode sample-hold
vector 597 scenario.client0.tcp.conn-53 ssthresh:vector ETV
attr interpolationmode sample-hold
vector 598 scenario.client0.tcp.conn-53 dupAcks:vector ETV
attr interpolationmode sample-hold
vector 599 scenario.client1.tcp.conn-54 rtt:vector ETV
attr interpolationmode sample-hold
vector 600 scenario.client1.tcp.conn-54 srtt:vector ETV
attr interpolationmode sample-hold
vector 601 scenario.client1.tcp.conn-54 rttvar:vector ETV
attr interpolationmode sample-hold
vector 602 scenario.client1.tcp.conn-54 rto:vector ETV
attr interpolationmode sample-hold
vector 603 scenario.client1.tcp.conn-54 cwnd:vector ETV
attr interpolationmode sample-hold
vector 604 scenario.client1.tcp.conn-54 ssthresh:vector ETV
attr interpolationmode sample-hold
vector 605 scenario.client1.tcp.conn-54 dupAcks:vector ETV
attr interpolationmode sample-hold
0	0	0	0
0	114	1.57832575457	1
0	116	1.57873375457	0
0	140	1.58014175457	1
0	142	1.58052575457	0
0	179	1.67684631904	1
0	180	1.67725431904	0
0	194	1.67863831904	1
0	197	1.67901431904	0
0	387	2.346286386547	1
0	388	2.346662386547	0
0	487	2.741353856013	1
0	488	2.741737856013	0
0	559	3.096983973387	1
0	560	3.097359973387	0
0	657	3.281922850062	1
0	662	3.282306850062	0
0	687	3.435830984099	1
0	688	3.436214984099	0
0	762	3.461283421003	1
0	763	3.461667421003	0
0	784	3.493083707876	1
0	785	3.493459707876	0
0	799	3.537735100192	1
0	800	3.538111100192	0
0	837	3.603778191473	1
0	838	3.604162191473	0
0	859	3.663186441847	1
0	860	3.663562441847	0
0	874	3.690570758873	1
0	875	3.690946758873	0
0	927	3.812980500381	1
0	928	3.813364500381	0
0	974	3.815132500381	1
0	976	3.815508500381	0
0	1039	3.898765956968	1
0	1046	3.899141956968	0
0	1046	3.899141956968	1
0	1049	3.899533956968	0
0	1157	3.913585745171	1
0	1158	3.913961745171	0
0	1210	3.946760401746	1
0	1211	3.947144401746	0
0	1232	3.95302279989	1
0	1233	3.95339879989	0
0	1285	4.045407395	1
0	1286	4.045791395	0
0	1312	4.078426646077	1
0	1313	4.078802646077	0
0	1352	4.112761006012	1
0	1353	4.113137006012	0
0	1390	4.220943757805	1
0	1391	4.221327757805	0
0	1544	4.2553065627	1
0	1555	4.2556905627	0
0	1586	4.346078860683	1
0	1587	4.346462860683	0
1	0	0	0
1	11	1.197027497177	1
1	12	1.197435497177	0
1	24	1.198843497177	1
1	25	1.199227497177	0
1	211	1.794037395428	1
1	212	1.794445395428	0
1	226	1.795829395428	1
1	229	1.796205395428	0
1	372	2.285365337931	1
1	373	2.285741337931	0
1	427	2.394224861232	1
1	428	2.394608861232	0
1	457	2.543014062929	1
1	458	2.543398062929	0
1	524	2.935724169317	1
1	525	2.936100169317	0
1	574	3.101744860866	1
1	575	3.102120860866	0
1	589	3.104815762322	1
1	590	3.105191762322	0
1	597	3.131611013642	1
1	598	3.131995013642	0
1	661	3.282200807398	1
1	663	3.282584807398	0
1	732	3.452555127293	1
1	733	3.452939127293	0
1	754	3.459598501907	1
1	755	3.459974501907	0
1	807	3.556291390728	1
1	808	3.556675390728	0
1	882	3.732769680227	1
1	883	3.733153680227	0
1	904	3.774496659932	1
1	905	3.774872659932	0
1	966	3.815042514847	1
1	975	3.815426514847	0
1	1044	3.898765956968	1
1	1047	3.899157956968	0
1	1202	3.93253670278	1
1	1203	3.93291270278	0
1	1247	3.965513047517	1
1	1248	3.965889047517	0
1	1252	3.965900574114	1
1	1253	3.966284574114	0
1	1382	4.178241222571	1
1	1383	4.178617222571	0
1	1420	4.239538744102	1
1	1421	4.239922744102	0
1	1442	4.251039335673	1
1	1447	4.251415335673	0
1	1485	4.252848667134	1
1	1492	4.253224667134	0
1	1676	4.524303845698	1
1	1677	4.524687845698	0
1	1706	4.604478043641	1
1	1707	4.604862043641	0
1	1773	5.011744442274	1
1	1774	5.012120442274	0
2	0	0	0
2	50	1.326177325846	1
2	51	1.326585325846	0
2	65	1.327969325846	1
2	68	1.328345325846	0
2	109	1.577976955473	1
2	115	1.578384955473	0
2	134	1.579792955473	1
2	141	1.580176955473	0
2	1045	3.898765956968	1
2	1048	3.899157956968	0
2	1305	4.077972718161	1
2	1306	4.078356718161	0
2	1601	4.351050267402	1
2	1602	4.351434267402	0
2	1623	4.426827726432	1
2	1624	4.427203726432	0
3	0	0	0
3	1490	4.252848667134	1
3	1504	4.253256667134	0
3	1533	4.254664667134	1
3	1540	4.255048667134	0
4	0	0	0
4	126	1.57923375457	1
4	128	1.57964175457	0
4	158	1.58102575457	1
4	162	1.58140175457	0
4	173	1.67593831904	1
4	174	1.67634631904	0
4	186	1.67775431904	1
4	187	1.67813831904	0
4	380	2.345402386547	1
4	381	2.345786386547	0
4	494	2.742237856013	1
4	495	2.742613856013	0
4	552	3.096099973387	1
4	553	3.096483973387	0
4	669	3.282806850062	1
4	676	3.283182850062	0
4	694	3.436714984099	1
4	695	3.437090984099	0
4	769	3.462167421003	1
4	770	3.462543421003	0
4	777	3.492199707876	1
4	778	3.492583707876	0
4	792	3.536851100192	1
4	793	3.537235100192	0
4	844	3.604662191473	1
4	845	3.605038191473	0
4	852	3.662302441847	1
4	853	3.662686441847	0
4	867	3.689686758873	1
4	868	3.690070758873	0
4	937	3.813864500381	1
4	944	3.814240500381	0
4	944	3.814240500381	1
4	947	3.814632500381	0
4	1029	3.897881956968	1
4	1030	3.898265956968	0
4	1082	3.900033956968	1
4	1085	3.900409956968	0
4	1150	3.912701745171	1
4	1151	3.913085745171	0
4	1217	3.947644401746	1
4	1218	3.948020401746	0
4	1225	3.95213879989	1
4	1226	3.95252279989	0
4	1292	4.046291395	1
4	1293	4.046667395	0
4	1300	4.077542646077	1
4	1301	4.077926646077	0
4	1345	4.111877006012	1
4	1346	4.112261006012	0
4	1397	4.221827757805	1
4	1398	4.222203757805	0
4	1571	4.2561905627	1
4	1576	4.2565665627	0
4	1593	4.346962860683	1
4	1594	4.347338860683	0
5	0	0	0
5	270	2.085903500473	1
5	271	2.086311500473	0
5	283	2.087719500473	1
5	284	2.088103500473	0
5	340	2.234565976012	1
5	341	2.234973976012	0
5	355	2.236357976012	1
5	358	2.236733976012	0
5	449	2.538577411054	1
5	450	2.538953411054	0
5	472	2.561679922727	1
5	473	2.562063922727	0
5	502	2.866967004241	1
5	503	2.867351004241	0
5	539	2.997431558701	1
5	540	2.997807558701	0
5	612	3.146732993561	1
5	613	3.147116993561	0
5	634	3.162479507675	1
5	635	3.162855507675	0
5	649	3.262474382275	1
5	650	3.262850382275	0
5	709	3.440744464125	1
5	710	3.441120464125	0
5	717	3.444036135624	1
[...]
387	700	3.439860464125	558642
387	820	3.575569874691	558642
387	1163	3.918850246528	558642
387	1178	3.928783962889	558642
387	1358	4.126917266884	558642
387	1458	4.251956667134	558642
387	1719	4.624453386395	558642
387	1749	4.806386428784	558642
388	338	2.234565976012	565919
388	338	2.234565976012	565919
388	351	2.236357976012	565919
388	446	2.538577411054	565921
388	536	2.997431558701	565922
388	631	3.162479507675	565923
388	646	3.262474382275	565924
388	706	3.440744464125	565925
388	826	3.576453874691	565926
388	1169	3.919734246528	565927
388	1184	3.929667962889	565928
388	1364	4.127801266884	565929
388	1495	4.253224667134	565931
388	1725	4.625337386395	565932
388	1755	4.807270428784	565933
389	338	2.234565976012	7504
389	351	2.236357976012	7504
390	338	2.234565976012	0
390	351	2.236357976012	0
390	351	2.236357976012	1
390	446	2.538577411054	0
390	446	2.538577411054	0
390	536	2.997431558701	0
390	536	2.997431558701	0
390	631	3.162479507675	0
390	631	3.162479507675	0
390	646	3.262474382275	0
390	646	3.262474382275	0
390	706	3.440744464125	0
390	706	3.440744464125	0
390	826	3.576453874691	0
390	826	3.576453874691	0
390	1169	3.919734246528	0
390	1169	3.919734246528	0
390	1184	3.929667962889	0
390	1184	3.929667962889	0
390	1364	4.127801266884	0
390	1364	4.127801266884	0
390	1495	4.253224667134	0
390	1495	4.253224667134	0
390	1725	4.625337386395	0
390	1725	4.625337386395	0
390	1755	4.807270428784	0
390	1755	4.807270428784	0
391	338	2.234565976012	7504
391	351	2.236357976012	7503
391	446	2.538577411054	7504
391	536	2.997431558701	7504
391	631	3.162479507675	7504
391	646	3.262474382275	7504
391	706	3.440744464125	7504
391	826	3.576453874691	7504
391	1169	3.919734246528	7504
391	1184	3.929667962889	7504
391	1364	4.127801266884	7504
391	1495	4.253224667134	7504
391	1725	4.625337386395	7504
391	1755	4.807270428784	7504
392	338	2.234565976012	558415
392	351	2.236357976012	558416
392	446	2.538577411054	558417
392	536	2.997431558701	558418
392	631	3.162479507675	558419
392	646	3.262474382275	558420
392	706	3.440744464125	558421
392	826	3.576453874691	558422
392	1169	3.919734246528	558423
392	1184	3.929667962889	558424
392	1364	4.127801266884	558425
392	1495	4.253224667134	558427
392	1725	4.625337386395	558428
392	1755	4.807270428784	558429
393	344	2.235473976012	558641
393	361	2.237233976012	558642
393	453	2.539453411054	558642
393	543	2.998307558701	558642
393	638	3.163355507675	558642
393	653	3.263350382275	558642
393	713	3.441620464125	558642
393	833	3.577329874691	558642
393	1176	3.920610246528	558642
393	1191	3.930543962889	558642
393	1371	4.128677266884	558642
393	1520	4.254100667134	558642
393	1732	4.626213386395	558642
393	1762	4.808146428784	558642
394	344	2.235473976012	558415
394	361	2.237233976012	558416
394	453	2.539453411054	558417
394	543	2.998307558701	558418
394	638	3.163355507675	558419
394	653	3.263350382275	558420
394	713	3.441620464125	558421
394	833	3.577329874691	558422
394	1176	3.920610246528	558423
394	1191	3.930543962889	558424
394	1371	4.128677266884	558425
394	1520	4.254100667134	558427
394	1732	4.626213386395	558428
394	1762	4.808146428784	558429
395	344	2.235473976012	7504
395	361	2.237233976012	7503
395	453	2.539453411054	7504
395	543	2.998307558701	7504
395	638	3.163355507675	7504
395	653	3.263350382275	7504
395	713	3.441620464125	7504
395	833	3.577329874691	7504
395	1176	3.920610246528	7504
395	1191	3.930543962889	7504
395	1371	4.128677266884	7504
395	1520	4.254100667134	7504
395	1732	4.626213386395	7504
395	1762	4.808146428784	7504
396	344	2.235473976012	1
396	361	2.237233976012	0
396	440	2.537693411054	1
396	453	2.539453411054	0
396	530	2.996547558701	1
396	543	2.998307558701	0
396	625	3.161595507675	1
396	638	3.163355507675	0
396	640	3.261590382275	1
396	653	3.263350382275	0
396	700	3.439860464125	1
396	713	3.441620464125	0
396	820	3.575569874691	1
396	833	3.577329874691	0
396	1163	3.918850246528	1
396	1176	3.920610246528	0
396	1178	3.928783962889	1
396	1191	3.930543962889	0
396	1358	4.126917266884	1
396	1371	4.128677266884	0
396	1458	4.251956667134	2
396	1520	4.254100667134	0
396	1719	4.624453386395	1
396	1732	4.626213386395	0
396	1749	4.806386428784	1
396	1762	4.808146428784	0
397	351	2.236357976012	558415
397	446	2.538577411054	558416
397	536	2.997431558701	558417
397	631	3.162479507675	558418
397	646	3.262474382275	558419
397	706	3.440744464125	558420
397	826	3.576453874691	558421
397	1169	3.919734246528	558422
397	1184	3.929667962889	558423
397	1364	4.127801266884	558424
397	1495	4.253224667134	558425
397	1725	4.625337386395	558427
397	1755	4.807270428784	558428
398	351	2.236357976012	558642
398	446	2.538577411054	558642
398	536	2.997431558701	558642
398	631	3.162479507675	558642
398	646	3.262474382275	558642
398	706	3.440744464125	558642
398	826	3.576453874691	558642
398	1169	3.919734246528	558642
398	1184	3.929667962889	558642
398	1364	4.127801266884	558642
398	1495	4.253224667134	558642
398	1725	4.625337386395	558642
398	1755	4.807270428784	558642
399	351	2.236357976012	0
400	351	2.236357976012	1072
401	351	2.236357976012	4294967295
402	351	2.236357976012	0
402	446	2.538577411054	0
402	536	2.997431558701	0
402	631	3.162479507675	0
402	646	3.262474382275	0
402	706	3.440744464125	0
402	826	3.576453874691	0
402	1169	3.919734246528	0
402	1184	3.929667962889	0
402	1364	4.127801266884	0
402	1495	4.253224667134	0
402	1725	4.625337386395	0
402	1755	4.807270428784	0
403	361	2.237233976012	0.00176
403	453	2.539453411054	0.00176
403	543	2.998307558701	0.00176
403	638	3.163355507675	0.00176
403	653	3.263350382275	0.00176
403	713	3.441620464125	0.00176
403	833	3.577329874691	0.00176
403	1176	3.920610246528	0.00176
403	1191	3.930543962889	0.00176
403	1371	4.128677266884	0.00176
403	1520	4.254100667134	0.002144
403	1732	4.626213386395	0.00176
403	1762	4.808146428784	0.00176
404	361	2.237233976012	0.00022
404	453	2.539453411054	0.0004125
404	543	2.998307558701	0.0005809375
404	638	3.163355507675	0.000728320313
404	653	3.263350382275	0.000857280274
404	713	3.441620464125	0.00097012024
404	833	3.577329874691	0.00106885521
404	1176	3.920610246528	0.001155248309
404	1191	3.930543962889	0.00123084227
404	1371	4.128677266884	0.001296986986
404	1520	4.254100667134	0.001402863613
404	1732	4.626213386395	0.001447505661
404	1762	4.808146428784	0.001486567453
405	361	2.237233976012	0.65647
405	453	2.539453411054	0.57460375
405	543	2.998307558701	0.50294671875
405	638	3.163355507675	0.440225761719
405	653	3.263350382275	0.385326501465
405	713	3.441620464125	0.337273528748
405	833	3.577329874691	0.295213072625
405	1176	3.920610246528	0.258397831646
405	1191	3.930543962889	0.226173696652
405	1371	4.128677266884	0.197968129287
405	1520	4.254100667134	0.173327989753
405	1732	4.626213386395	0.151706633082
405	1762	4.808146428784	0.132782365739
406	361	2.237233976012	2.6261
406	453	2.539453411054	2.2988275
406	543	2.998307558701	2.0123678125
406	638	3.163355507675	1.761631367189
406	653	3.263350382275	1.542163286134
406	713	3.441620464125	1.350064235232
406	833	3.577329874691	1.18192114571
406	1176	3.920610246528	1.034746574893
406	1191	3.930543962889	1
406	1371	4.128677266884	1
406	1520	4.254100667134	1
406	1732	4.626213386395	1
406	1762	4.808146428784	1
407	361	2.237233976012	1072
407	453	2.539453411054	1608
407	543	2.998307558701	2144
407	638	3.163355507675	2680
407	653	3.263350382275	3216
407	713	3.441620464125	3752
407	833	3.577329874691	4288
407	1176	3.920610246528	4824
407	1191	3.930543962889	5360
407	1371	4.128677266884	5896
407	1520	4.254100667134	6432
407	1732	4.626213386395	6968
407	1762	4.808146428784	7504
408	361	2.237233976012	4294967295
408	453	2.539453411054	4294967295
408	543	2.998307558701	4294967295
408	638	3.163355507675	4294967295
408	653	3.263350382275	4294967295
408	713	3.441620464125	4294967295
408	833	3.577329874691	4294967295
408	1176	3.920610246528	4294967295
408	1191	3.930543962889	4294967295
408	1371	4.128677266884	4294967295
408	1520	4.254100667134	4294967295
408	1732	4.626213386395	4294967295
408	1762	4.808146428784	4294967295
409	361	2.237233976012	0
409	453	2.539453411054	0
409	543	2.998307558701	0
409	638	3.163355507675	0
409	653	3.263350382275	0
409	713	3.441620464125	0
409	833	3.577329874691	0
409	1176	3.920610246528	0
409	1191	3.930543962889	0
409	1371	4.128677266884	0
409	1520	4.254100667134	0
409	1732	4.626213386395	0
409	1762	4.808146428784	0
410	393	2.385313605152	0
410	406	2.387129605152	0
410	936	3.813864500381	0
410	1629	4.465587270241	0
411	393	2.385313605152	7504
411	406	2.387129605152	604060
411	406	2.387129605152	604060
411	936	3.813864500381	604060
411	1629	4.465587270241	604060
412	393	2.385313605152	7504
412	406	2.387129605152	7504
412	936	3.813864500381	7504
412	1629	4.465587270241	7504
413	393	2.385313605152	0
413	406	2.387129605152	596556
413	936	3.813864500381	596556
413	1629	4.465587270241	596556
414	400	2.386221605152	603833
414	400	2.386221605152	603833
414	413	2.388013605152	603833
414	956	3.814756500381	603836
414	1635	4.466471270241	603837
415	400	2.386221605152	7504
415	413	2.388013605152	7504
416	400	2.386221605152	0
416	413	2.388013605152	0
416	413	2.388013605152	1
416	956	3.814756500381	0
416	956	3.814756500381	0
416	1635	4.466471270241	0
416	1635	4.466471270241	0
417	400	2.386221605152	7504
417	413	2.388013605152	7503
417	956	3.814756500381	7504
417	1635	4.466471270241	7504
418	400	2.386221605152	596329
418	413	2.388013605152	596330
418	956	3.814756500381	596332
418	1635	4.466471270241	596333
419	406	2.387129605152	596555
419	423	2.388889605152	596556
419	982	3.815632500381	596556
419	1642	4.467347270241	596556
420	406	2.387129605152	596329
420	423	2.388889605152	596330
420	982	3.815632500381	596332
420	1642	4.467347270241	596333
421	406	2.387129605152	7504
421	423	2.388889605152	7503
421	982	3.815632500381	7504
421	1642	4.467347270241	7504
422	406	2.387129605152	1
422	423	2.388889605152	0
422	936	3.813864500381	2
422	982	3.815632500381	0
422	1629	4.465587270241	1
422	1642	4.467347270241	0
423	413	2.388013605152	596329
423	956	3.814756500381	596330
423	1635	4.466471270241	596332
424	413	2.388013605152	596556
424	956	3.814756500381	596556
424	1635	4.466471270241	596556
425	413	2.388013605152	0
426	413	2.388013605152	1072
427	413	2.388013605152	4294967295
428	413	2.388013605152	0
428	956	3.814756500381	0
428	1635	4.466471270241	0
429	423	2.388889605152	0.00176
429	982	3.815632500381	0.001768
429	1642	4.467347270241	0.00176
430	423	2.388889605152	0.00022
430	982	3.815632500381	0.0004135
430	1642	4.467347270241	0.0005818125
431	423	2.388889605152	0.65647
431	982	3.815632500381	0.57460475
431	1642	4.467347270241	0.50294746875
432	423	2.388889605152	2.6261
432	982	3.815632500381	2.2988325
432	1642	4.467347270241	2.0123716875
433	423	2.388889605152	1072
433	982	3.815632500381	1608
433	1642	4.467347270241	2144
434	423	2.388889605152	4294967295
434	982	3.815632500381	4294967295
434	1642	4.467347270241	4294967295
435	423	2.388889605152	0
435	982	3.815632500381	0
435	1642	4.467347270241	0
436	1067	3.899657956968	0
436	1111	3.901473956968	0
437	1067	3.899657956968	7504
437	1111	3.901473956968	982646
437	1111	3.901473956968	982646
438	1067	3.899657956968	7504
438	1111	3.901473956968	7504
439	1067	3.899657956968	0
439	1111	3.901473956968	975142
440	1069	3.899657956968	0
440	1112	3.901473956968	0
441	1069	3.899657956968	7504
441	1112	3.901473956968	982646
441	1112	3.901473956968	982646
442	1069	3.899657956968	7504
442	1112	3.901473956968	7504
443	1069	3.899657956968	0
443	1112	3.901473956968	975142
444	1073	3.899657956968	44
444	1117	3.901473956968	41
445	1073	3.899657956968	44
445	1117	3.901473956968	41
446	1073	3.899657956968	1
446	1073	3.899657956968	0
446	1117	3.901473956968	1
446	1117	3.901473956968	0
447	1073	3.899657956968	44
447	1117	3.901473956968	41
448	1073	3.899657956968	0
448	1117	3.901473956968	0
449	1073	3.899657956968	51
449	1117	3.901473956968	48
450	1074	3.899657956968	44
450	1118	3.901473956968	41
451	1074	3.899657956968	44
451	1118	3.901473956968	41
452	1074	3.899657956968	1
452	1074	3.899657956968	0
452	1118	3.901473956968	1
452	1118	3.901473956968	0
453	1074	3.899657956968	44
453	1118	3.901473956968	41
454	1074	3.899657956968	0
454	1118	3.901473956968	0
455	1074	3.899657956968	51
455	1118	3.901473956968	48
456	1092	3.900565956968	51
456	1121	3.902357956968	48
457	1092	3.900565956968	44
457	1121	3.902357956968	41
458	1093	3.900565956968	51
458	1122	3.902357956968	48
459	1093	3.900565956968	44
459	1122	3.902357956968	41
460	1096	3.900565956968	974914
460	1097	3.900565956968	974914
460	1515	4.253756667134	1063212
460	1523	4.254132667134	1063306
461	1096	3.900565956968	0
461	1097	3.900565956968	0
461	1515	4.253756667134	0
461	1523	4.254132667134	0
462	1096	3.900565956968	982419
462	1096	3.900565956968	982419
462	1125	3.902357956968	982419
463	1096	3.900565956968	7504
463	1125	3.902357956968	7504
464	1096	3.900565956968	0
464	1125	3.902357956968	0
464	1125	3.902357956968	1
465	1096	3.900565956968	7504
465	1125	3.902357956968	7503
466	1096	3.900565956968	974915
466	1125	3.902357956968	974916
467	1097	3.900565956968	982419
467	1097	3.900565956968	982419
467	1126	3.902357956968	982419
468	1097	3.900565956968	7504
468	1126	3.902357956968	7504
469	1097	3.900565956968	0
469	1126	3.902357956968	0
469	1126	3.902357956968	1
470	1097	3.900565956968	7504
470	1126	3.902357956968	7503
471	1097	3.900565956968	974915
471	1126	3.902357956968	974916
472	1100	3.900565956968	44
472	1132	3.902357956968	40
473	1100	3.900565956968	44
473	1132	3.902357956968	40
474	1100	3.900565956968	1
474	1100	3.900565956968	0
474	1132	3.902357956968	1
474	1132	3.902357956968	0
475	1100	3.900565956968	44
475	1132	3.902357956968	40
476	1100	3.900565956968	0
476	1132	3.902357956968	0
477	1100	3.900565956968	51
477	1132	3.902357956968	47
478	1101	3.900565956968	44
478	1134	3.902357956968	40
479	1101	3.900565956968	44
479	1134	3.902357956968	40
480	1101	3.900565956968	1
480	1101	3.900565956968	0
480	1134	3.902357956968	1
480	1134	3.902357956968	0
481	1101	3.900565956968	44
481	1134	3.902357956968	40
482	1101	3.900565956968	0
482	1134	3.902357956968	0
483	1101	3.900565956968	51
483	1134	3.902357956968	47
484	1107	3.901473956968	51
484	1141	3.903233956968	47
485	1107	3.901473956968	44
485	1141	3.903233956968	40
486	1108	3.901473956968	51
486	1142	3.903233956968	47
487	1108	3.901473956968	44
487	1142	3.903233956968	40
488	1111	3.901473956968	975141
488	1145	3.903233956968	975142
489	1111	3.901473956968	974915
489	1145	3.903233956968	974916
490	1111	3.901473956968	7504
490	1145	3.903233956968	7503
491	1111	3.901473956968	1
491	1145	3.903233956968	0
492	1112	3.901473956968	975141
492	1146	3.903233956968	975142
493	1112	3.901473956968	974915
493	1146	3.903233956968	974916
494	1112	3.901473956968	7504
494	1146	3.903233956968	7503
495	1112	3.901473956968	1
495	1146	3.903233956968	0
496	1125	3.902357956968	974915
497	1125	3.902357956968	975142
498	1125	3.902357956968	0
499	1125	3.902357956968	1072
500	1125	3.902357956968	4294967295
501	1125	3.902357956968	0
502	1126	3.902357956968	974915
503	1126	3.902357956968	975142
504	1126	3.902357956968	0
505	1126	3.902357956968	1072
506	1126	3.902357956968	4294967295
507	1126	3.902357956968	0
508	1145	3.903233956968	0.00176
509	1145	3.903233956968	0.00022
510	1145	3.903233956968	0.65647
511	1145	3.903233956968	2.6261
512	1145	3.903233956968	1072
513	1145	3.903233956968	4294967295
514	1145	3.903233956968	0
515	1146	3.903233956968	0.00176
516	1146	3.903233956968	0.00022
517	1146	3.903233956968	0.65647
518	1146	3.903233956968	2.6261
519	1146	3.903233956968	1072
520	1146	3.903233956968	4294967295
521	1146	3.903233956968	0
522	1487	4.252848667134	0
522	1530	4.254664667134	0
523	1487	4.252848667134	7504
523	1530	4.254664667134	1070944
523	1530	4.254664667134	1070944
524	1487	4.252848667134	7504
524	1530	4.254664667134	7504
525	1487	4.252848667134	0
525	1530	4.254664667134	1063440
526	1490	4.252848667134	44
526	1533	4.254664667134	41
527	1490	4.252848667134	44
527	1533	4.254664667134	41
528	1490	4.252848667134	1
528	1490	4.252848667134	0
528	1533	4.254664667134	1
528	1533	4.254664667134	0
529	1490	4.252848667134	44
529	1533	4.254664667134	41
530	1490	4.252848667134	0
530	1533	4.254664667134	0
531	1490	4.252848667134	51
531	1533	4.254664667134	48
532	1500	4.253224667134	0
532	1536	4.255040667134	0
533	1500	4.253224667134	7504
533	1536	4.255040667134	1071038
533	1536	4.255040667134	1071038
534	1500	4.253224667134	7504
534	1536	4.255040667134	7504
535	1500	4.253224667134	0
535	1536	4.255040667134	1063534
536	1503	4.253224667134	44
536	1539	4.255040667134	41
537	1503	4.253224667134	44
537	1539	4.255040667134	41
538	1503	4.253224667134	1
538	1503	4.253224667134	0
538	1539	4.255040667134	1
538	1539	4.255040667134	0
539	1503	4.253224667134	44
539	1539	4.255040667134	41
540	1503	4.253224667134	0
540	1539	4.255040667134	0
541	1503	4.253224667134	51
541	1539	4.255040667134	48
542	1513	4.253756667134	51
542	1546	4.255548667134	48
543	1513	4.253756667134	44
543	1546	4.255548667134	41
544	1515	4.253756667134	1070717
544	1515	4.253756667134	1070717
544	1548	4.255548667134	1070717
545	1515	4.253756667134	7504
545	1548	4.255548667134	7504
546	1515	4.253756667134	0
546	1548	4.255548667134	0
546	1548	4.255548667134	1
547	1515	4.253756667134	7504
547	1548	4.255548667134	7503
548	1515	4.253756667134	1063213
548	1548	4.255548667134	1063214
549	1517	4.253756667134	44
549	1552	4.255548667134	40
550	1517	4.253756667134	44
550	1552	4.255548667134	40
551	1517	4.253756667134	1
551	1517	4.253756667134	0
551	1552	4.255548667134	1
551	1552	4.255548667134	0
552	1517	4.253756667134	44
552	1552	4.255548667134	40
553	1517	4.253756667134	0
553	1552	4.255548667134	0
554	1517	4.253756667134	51
554	1552	4.255548667134	47
555	1521	4.254132667134	51
555	1556	4.255924667134	48
556	1521	4.254132667134	44
556	1556	4.255924667134	41
557	1523	4.254132667134	1070811
557	1523	4.254132667134	1070811
557	1559	4.255924667134	1070811
558	1523	4.254132667134	7504
558	1559	4.255924667134	7504
559	1523	4.254132667134	0
559	1559	4.255924667134	0
559	1559	4.255924667134	1
560	1523	4.254132667134	7504
560	1559	4.255924667134	7503
561	1523	4.254132667134	1063307
561	1559	4.255924667134	1063308
562	1525	4.254132667134	44
562	1563	4.255924667134	40
563	1525	4.254132667134	44
563	1563	4.255924667134	40
564	1525	4.254132667134	1
564	1525	4.254132667134	0
564	1563	4.255924667134	1
564	1563	4.255924667134	0
565	1525	4.254132667134	44
565	1563	4.255924667134	40
566	1525	4.254132667134	0
566	1563	4.255924667134	0
567	1525	4.254132667134	51
567	1563	4.255924667134	47
568	1528	4.254664667134	51
568	1573	4.256424667134	47
569	1528	4.254664667134	44
569	1573	4.256424667134	40
570	1530	4.254664667134	1063439
570	1575	4.256424667134	1063440
571	1530	4.254664667134	1063213
571	1575	4.256424667134	1063214
572	1530	4.254664667134	7504
572	1575	4.256424667134	7503
573	1530	4.254664667134	1
573	1575	4.256424667134	0
574	1534	4.255040667134	51
574	1577	4.256800667134	47
575	1534	4.255040667134	44
575	1577	4.256800667134	40
576	1536	4.255040667134	1063533
576	1579	4.256800667134	1063534
577	1536	4.255040667134	1063307
577	1579	4.256800667134	1063308
578	1536	4.255040667134	7504
578	1579	4.256800667134	7503
579	1536	4.255040667134	1
579	1579	4.256800667134	0
580	1548	4.255548667134	1063213
581	1548	4.255548667134	1063440
582	1548	4.255548667134	0
583	1548	4.255548667134	1072
584	1548	4.255548667134	4294967295
585	1548	4.255548667134	0
586	1559	4.255924667134	1063307
587	1559	4.255924667134	1063534
588	1559	4.255924667134	0
589	1559	4.255924667134	1072
590	1559	4.255924667134	4294967295
591	1559	4.255924667134	0
592	1575	4.256424667134	0.00176
593	1575	4.256424667134	0.00022
594	1575	4.256424667134	0.65647
595	1575	4.256424667134	2.6261
596	1575	4.256424667134	1072
597	1575	4.256424667134	4294967295
598	1575	4.256424667134	0
599	1579	4.256800667134	0.00176
600	1579	4.256800667134	0.00022
601	1579	4.256800667134	0.65647
602	1579	4.256800667134	2.6261
603	1579	4.256800667134	1072
604	1579	4.256800667134	4294967295
605	1579	4.256800667134	0

