file 339238 1641924789                                          
version 2
run BROADCAST6-0-20220111-19:13:05-14860
attr configname BROADCAST6
attr datetime 20220111-19:13:05
attr experiment BROADCAST6
attr inifile omnetpp.ini
attr iterationvars ""
attr iterationvarsf ""
attr measurement ""
attr network scenario
attr processid 14860
attr repetition 0
attr replication #0
attr resultdir results
attr runnumber 0
attr seedset 0
param **.client0.app[0].broadcast 2.1
param **.client4.app[0].leave 1.0
param **.ppp[*].ppp.queue.typename "\"DropTailQueue\""
param **.tcp.typename "\"Tcp\""
param **.tcp.nagleEnabled false
param **.cli*.app[*].nPar 5
param **.cli*.app[*].fPar 0
param **.numApps 1
param **.client0.app[*].typename "\"Node\""
param **.client0.app[0].localPort 1000
param **.client0.app[0].localPortL 1234
param **.client0.app[0].connectAddress "\"\""
param **.client0.app[0].connectPort 1234
param **.client1.app[*].typename "\"Node\""
param **.client1.app[0].localPort 1001
param **.client1.app[0].localPortL 1234
param **.client1.app[0].connectAddress "\"\""
param **.client1.app[0].connectPort 1234
param **.client2.app[*].typename "\"Node\""
param **.client2.app[0].localPort 1002
param **.client2.app[0].localPortL 1234
param **.client2.app[0].connectAddress "\"\""
param **.client2.app[0].connectPort 1234
param **.client3.app[*].typename "\"Node\""
param **.client3.app[0].localPort 1003
param **.client3.app[0].localPortL 1234
param **.client3.app[0].connectAddress "\"\""
param **.client3.app[0].connectPort 1234
param **.client4.app[*].typename "\"Node\""
param **.client4.app[0].localPort 1004
param **.client4.app[0].localPortL 1234
param **.client4.app[0].connectAddress "\"\""
param **.client4.app[0].connectPort 1234
param *.configurator.dumpAddresses true
param *.configurator.dumpTopology true
param *.configurator.dumpLinks true
param *.configurator.dumpRoutes true

vector 0 scenario.client0.ppp[0].ppp transmissionState:vector ETV
attr interpolationmode sample-hold
attr source transmissionStateChanged
attr title "tx state, vector"
vector 1 scenario.client0.ppp[1].ppp transmissionState:vector ETV
attr interpolationmode sample-hold
attr source transmissionStateChanged
attr title "tx state, vector"
vector 2 scenario.client0.ppp[2].ppp transmissionState:vector ETV
attr interpolationmode sample-hold
attr source transmissionStateChanged
attr title "tx state, vector"
vector 3 scenario.client0.ppp[3].ppp transmissionState:vector ETV
attr interpolationmode sample-hold
attr source transmissionStateChanged
attr title "tx state, vector"
vector 4 scenario.client1.ppp[0].ppp transmissionState:vector ETV
attr interpolationmode sample-hold
attr source transmissionStateChanged
attr title "tx state, vector"
vector 5 scenario.client1.ppp[1].ppp transmissionState:vector ETV
attr interpolationmode sample-hold
attr source transmissionStateChanged
attr title "tx state, vector"
vector 6 scenario.client1.ppp[2].ppp transmissionState:vector ETV
attr interpolationmode sample-hold
attr source transmissionStateChanged
attr title "tx state, vector"
vector 7 scenario.client1.ppp[3].ppp transmissionState:vector ETV
attr interpolationmode sample-hold
attr source transmissionStateChanged
attr title "tx state, vector"
vector 8 scenario.client2.ppp[0].ppp transmissionState:vector ETV
attr interpolationmode sample-hold
attr source transmissionStateChanged
attr title "tx state, vector"
vector 9 scenario.client2.ppp[1].ppp transmissionState:vector ETV
attr interpolationmode sample-hold
attr source transmissionStateChanged
attr title "tx state, vector"
vector 10 scenario.client2.ppp[2].ppp transmissionState:vector ETV
attr interpolationmode sample-hold
attr source transmissionStateChanged
attr title "tx state, vector"
vector 11 scenario.client2.ppp[3].ppp transmissionState:vector ETV
attr interpolationmode sample-hold
attr source transmissionStateChanged
attr title "tx state, vector"
vector 12 scenario.client3.ppp[0].ppp transmissionState:vector ETV
attr interpolationmode sample-hold
attr source transmissionStateChanged
attr title "tx state, vector"
vector 13 scenario.client3.ppp[1].ppp transmissionState:vector ETV
attr interpolationmode sample-hold
attr source transmissionStateChanged
attr title "tx state, vector"
vector 14 scenario.client3.ppp[2].ppp transmissionState:vector ETV
attr interpolationmode sample-hold
attr source transmissionStateChanged
attr title "tx state, vector"
vector 15 scenario.client3.ppp[3].ppp transmissionState:vector ETV
attr interpolationmode sample-hold
attr source transmissionStateChanged
attr title "tx state, vector"
vector 16 scenario.client4.ppp[0].ppp transmissionState:vector ETV
attr interpolationmode sample-hold
attr source transmissionStateChanged
attr title "tx state, vector"
vector 17 scenario.client4.ppp[1].ppp transmissionState:vector ETV
attr interpolationmode sample-hold
attr source transmissionStateChanged
attr title "tx state, vector"
vector 18 scenario.client4.ppp[2].ppp transmissionState:vector ETV
attr interpolationmode sample-hold
attr source transmissionStateChanged
attr title "tx state, vector"
vector 19 scenario.client4.ppp[3].ppp transmissionState:vector ETV
attr interpolationmode sample-hold
attr source transmissionStateChanged
attr title "tx state, vector"
vector 20 scenario.client4.tcp.conn-25 tcpRcvQueueBytes:vector ETV
attr interpolationmode sample-hold
vector 21 scenario.client4.tcp.conn-25 rcvAdv:vector ETV
attr interpolationmode sample-hold
vector 22 scenario.client4.tcp.conn-25 rcvWnd:vector ETV
attr interpolationmode sample-hold
vector 23 scenario.client4.tcp.conn-25 sndAck:vector ETV
attr interpolationmode sample-hold
vector 24 scenario.client4.ppp[1].ppp rcvdPkFromHl:vector(packetBytes) ETV
attr interpolationmode none
attr source packetReceivedFromUpper
attr title "packets received from higher layer, vector(packetBytes)"
vector 25 scenario.client4.ppp[1].ppp.queue packetPushed:vector(packetBytes) ETV
attr interpolationmode none
attr title "packet pushed, vector(packetBytes)"
vector 26 scenario.client4.ppp[1].ppp.queue queueLength:vector ETV
attr interpolationmode sample-hold
attr source "count(packetPushed) - count(packetPopped) - count(packetRemoved) - count(packetDropped)"
attr title "queue length, vector"
vector 27 scenario.client4.ppp[1].ppp.queue packetPopped:vector(packetBytes) ETV
attr interpolationmode none
attr title "packet popped, vector(packetBytes)"
vector 28 scenario.client4.ppp[1].ppp.queue queueingTime:vector ETV
attr interpolationmode none
attr source queueingTime(packetPopped)
attr title "queueing times, vector"
attr unit s
vector 29 scenario.client4.ppp[1].ppp txPk:vector(packetBytes) ETV
attr interpolationmode none
attr source packetSentToLower
attr title "packets transmitted, vector(packetBytes)"
vector 30 scenario.client1.ppp[3].ppp rxPkOk:vector(packetBytes) ETV
attr interpolationmode none
attr source rxPkOk
attr title "packets received OK, vector(packetBytes)"
vector 31 scenario.client1.ppp[3].ppp passedUpPk:vector(packetBytes) ETV
attr interpolationmode none
attr source packetSentToUpper
attr title "packets passed to higher layer, vector(packetBytes)"
vector 32 scenario.client1.tcp.conn-1 rcvSeq:vector ETV
attr interpolationmode sample-hold
vector 33 scenario.client1.tcp.conn-1 rcvAck:vector ETV
attr interpolationmode sample-hold
vector 34 scenario.client1.tcp.conn-26 rcvAdv:vector ETV
attr interpolationmode sample-hold
vector 35 scenario.client1.tcp.conn-26 sndWnd:vector ETV
attr interpolationmode sample-hold
vector 36 scenario.client1.tcp.conn-26 tcpRcvQueueBytes:vector ETV
attr interpolationmode sample-hold
vector 37 scenario.client1.tcp.conn-26 rcvWnd:vector ETV
attr interpolationmode sample-hold
vector 38 scenario.client1.tcp.conn-26 sndAck:vector ETV
attr interpolationmode sample-hold
vector 39 scenario.client1.ppp[3].ppp rcvdPkFromHl:vector(packetBytes) ETV
attr interpolationmode none
attr source packetReceivedFromUpper
attr title "packets received from higher layer, vector(packetBytes)"
vector 40 scenario.client1.ppp[3].ppp.queue packetPushed:vector(packetBytes) ETV
attr interpolationmode none
attr title "packet pushed, vector(packetBytes)"
vector 41 scenario.client1.ppp[3].ppp.queue queueLength:vector ETV
attr interpolationmode sample-hold
attr source "count(packetPushed) - count(packetPopped) - count(packetRemoved) - count(packetDropped)"
attr title "queue length, vector"
vector 42 scenario.client1.ppp[3].ppp.queue packetPopped:vector(packetBytes) ETV
attr interpolationmode none
attr title "packet popped, vector(packetBytes)"
vector 43 scenario.client1.ppp[3].ppp.queue queueingTime:vector ETV
attr interpolationmode none
attr source queueingTime(packetPopped)
attr title "queueing times, vector"
attr unit s
vector 44 scenario.client1.ppp[3].ppp txPk:vector(packetBytes) ETV
attr interpolationmode none
attr source packetSentToLower
attr title "packets transmitted, vector(packetBytes)"
vector 45 scenario.client4.ppp[1].ppp rxPkOk:vector(packetBytes) ETV
attr interpolationmode none
attr source rxPkOk
attr title "packets received OK, vector(packetBytes)"
vector 46 scenario.client4.ppp[1].ppp passedUpPk:vector(packetBytes) ETV
attr interpolationmode none
attr source packetSentToUpper
attr title "packets passed to higher layer, vector(packetBytes)"
vector 47 scenario.client4.tcp.conn-25 rcvSeq:vector ETV
attr interpolationmode sample-hold
vector 48 scenario.client4.tcp.conn-25 rcvAck:vector ETV
attr interpolationmode sample-hold
vector 49 scenario.client4.tcp.conn-25 sndWnd:vector ETV
attr interpolationmode sample-hold
vector 50 scenario.client4.tcp.conn-25 unacked:vector ETV
attr interpolationmode sample-hold
vector 51 scenario.client1.tcp.conn-26 rcvSeq:vector ETV
attr interpolationmode sample-hold
vector 52 scenario.client1.tcp.conn-26 rcvAck:vector ETV
attr interpolationmode sample-hold
vector 53 scenario.client1.tcp.conn-26 unacked:vector ETV
attr interpolationmode sample-hold
vector 54 scenario.client1.tcp.conn-26 cwnd:vector ETV
attr interpolationmode sample-hold
vector 55 scenario.client1.tcp.conn-26 ssthresh:vector ETV
attr interpolationmode sample-hold
vector 56 scenario.client1.tcp.conn-26 dupAcks:vector ETV
attr interpolationmode sample-hold
vector 57 scenario.client4.tcp.conn-25 rtt:vector ETV
attr interpolationmode sample-hold
vector 58 scenario.client4.tcp.conn-25 srtt:vector ETV
attr interpolationmode sample-hold
vector 59 scenario.client4.tcp.conn-25 rttvar:vector ETV
attr interpolationmode sample-hold
vector 60 scenario.client4.tcp.conn-25 rto:vector ETV
attr interpolationmode sample-hold
vector 61 scenario.client4.tcp.conn-25 cwnd:vector ETV
attr interpolationmode sample-hold
vector 62 scenario.client4.tcp.conn-25 ssthresh:vector ETV
attr interpolationmode sample-hold
vector 63 scenario.client4.tcp.conn-25 dupAcks:vector ETV
attr interpolationmode sample-hold
vector 64 scenario.client4.tcp.conn-27 tcpRcvQueueBytes:vector ETV
attr interpolationmode sample-hold
vector 65 scenario.client4.tcp.conn-27 rcvAdv:vector ETV
attr interpolationmode sample-hold
vector 66 scenario.client4.tcp.conn-27 rcvWnd:vector ETV
attr interpolationmode sample-hold
vector 67 scenario.client4.tcp.conn-27 sndAck:vector ETV
attr interpolationmode sample-hold
vector 68 scenario.client4.ppp[0].ppp rcvdPkFromHl:vector(packetBytes) ETV
attr interpolationmode none
attr source packetReceivedFromUpper
attr title "packets received from higher layer, vector(packetBytes)"
vector 69 scenario.client4.ppp[0].ppp.queue packetPushed:vector(packetBytes) ETV
attr interpolationmode none
attr title "packet pushed, vector(packetBytes)"
vector 70 scenario.client4.ppp[0].ppp.queue queueLength:vector ETV
attr interpolationmode sample-hold
attr source "count(packetPushed) - count(packetPopped) - count(packetRemoved) - count(packetDropped)"
attr title "queue length, vector"
vector 71 scenario.client4.ppp[0].ppp.queue packetPopped:vector(packetBytes) ETV
attr interpolationmode none
attr title "packet popped, vector(packetBytes)"
vector 72 scenario.client4.ppp[0].ppp.queue queueingTime:vector ETV
attr interpolationmode none
attr source queueingTime(packetPopped)
attr title "queueing times, vector"
attr unit s
vector 73 scenario.client4.ppp[0].ppp txPk:vector(packetBytes) ETV
attr interpolationmode none
attr source packetSentToLower
attr title "packets transmitted, vector(packetBytes)"
vector 74 scenario.client0.ppp[3].ppp rxPkOk:vector(packetBytes) ETV
attr interpolationmode none
attr source rxPkOk
attr title "packets received OK, vector(packetBytes)"
vector 75 scenario.client0.ppp[3].ppp passedUpPk:vector(packetBytes) ETV
attr interpolationmode none
attr source packetSentToUpper
attr title "packets passed to higher layer, vector(packetBytes)"
vector 76 scenario.client0.tcp.conn-0 rcvSeq:vector ETV
attr interpolationmode sample-hold
vector 77 scenario.client0.tcp.conn-0 rcvAck:vector ETV
attr interpolationmode sample-hold
vector 78 scenario.client0.tcp.conn-28 rcvAdv:vector ETV
attr interpolationmode sample-hold
vector 79 scenario.client0.tcp.conn-28 sndWnd:vector ETV
attr interpolationmode sample-hold
vector 80 scenario.client0.tcp.conn-28 tcpRcvQueueBytes:vector ETV
attr interpolationmode sample-hold
vector 81 scenario.client0.tcp.conn-28 rcvWnd:vector ETV
attr interpolationmode sample-hold
vector 82 scenario.client0.tcp.conn-28 sndAck:vector ETV
attr interpolationmode sample-hold
vector 83 scenario.client0.ppp[3].ppp rcvdPkFromHl:vector(packetBytes) ETV
attr interpolationmode none
attr source packetReceivedFromUpper
attr title "packets received from higher layer, vector(packetBytes)"
vector 84 scenario.client0.ppp[3].ppp.queue packetPushed:vector(packetBytes) ETV
attr interpolationmode none
attr title "packet pushed, vector(packetBytes)"
vector 85 scenario.client0.ppp[3].ppp.queue queueLength:vector ETV
attr interpolationmode sample-hold
attr source "count(packetPushed) - count(packetPopped) - count(packetRemoved) - count(packetDropped)"
attr title "queue length, vector"
vector 86 scenario.client0.ppp[3].ppp.queue packetPopped:vector(packetBytes) ETV
attr interpolationmode none
attr title "packet popped, vector(packetBytes)"
vector 87 scenario.client0.ppp[3].ppp.queue queueingTime:vector ETV
attr interpolationmode none
attr source queueingTime(packetPopped)
attr title "queueing times, vector"
attr unit s
vector 88 scenario.client0.ppp[3].ppp txPk:vector(packetBytes) ETV
attr interpolationmode none
attr source packetSentToLower
attr title "packets transmitted, vector(packetBytes)"
vector 89 scenario.client4.ppp[0].ppp rxPkOk:vector(packetBytes) ETV
attr interpolationmode none
attr source rxPkOk
attr title "packets received OK, vector(packetBytes)"
vector 90 scenario.client4.ppp[0].ppp passedUpPk:vector(packetBytes) ETV
attr interpolationmode none
attr source packetSentToUpper
attr title "packets passed to higher layer, vector(packetBytes)"
vector 91 scenario.client4.tcp.conn-27 rcvSeq:vector ETV
attr interpolationmode sample-hold
vector 92 scenario.client4.tcp.conn-27 rcvAck:vector ETV
attr interpolationmode sample-hold
vector 93 scenario.client4.tcp.conn-27 sndWnd:vector ETV
attr interpolationmode sample-hold
vector 94 scenario.client4.tcp.conn-27 unacked:vector ETV
attr interpolationmode sample-hold
vector 95 scenario.client0.tcp.conn-28 rcvSeq:vector ETV
attr interpolationmode sample-hold
vector 96 scenario.client0.tcp.conn-28 rcvAck:vector ETV
attr interpolationmode sample-hold
vector 97 scenario.client0.tcp.conn-28 unacked:vector ETV
attr interpolationmode sample-hold
vector 98 scenario.client0.tcp.conn-28 cwnd:vector ETV
attr interpolationmode sample-hold
vector 99 scenario.client0.tcp.conn-28 ssthresh:vector ETV
attr interpolationmode sample-hold
vector 100 scenario.client0.tcp.conn-28 dupAcks:vector ETV
attr interpolationmode sample-hold
vector 101 scenario.client4.tcp.conn-27 rtt:vector ETV
attr interpolationmode sample-hold
vector 102 scenario.client4.tcp.conn-27 srtt:vector ETV
attr interpolationmode sample-hold
vector 103 scenario.client4.tcp.conn-27 rttvar:vector ETV
attr interpolationmode sample-hold
vector 104 scenario.client4.tcp.conn-27 rto:vector ETV
attr interpolationmode sample-hold
vector 105 scenario.client4.tcp.conn-27 cwnd:vector ETV
attr interpolationmode sample-hold
vector 106 scenario.client4.tcp.conn-27 ssthresh:vector ETV
attr interpolationmode sample-hold
vector 107 scenario.client4.tcp.conn-27 dupAcks:vector ETV
attr interpolationmode sample-hold
vector 108 scenario.client4.tcp.conn-29 tcpRcvQueueBytes:vector ETV
attr interpolationmode sample-hold
vector 109 scenario.client4.tcp.conn-29 rcvAdv:vector ETV
attr interpolationmode sample-hold
vector 110 scenario.client4.tcp.conn-29 rcvWnd:vector ETV
attr interpolationmode sample-hold
vector 111 scenario.client4.tcp.conn-29 sndAck:vector ETV
attr interpolationmode sample-hold
vector 112 scenario.client4.ppp[2].ppp rcvdPkFromHl:vector(packetBytes) ETV
attr interpolationmode none
attr source packetReceivedFromUpper
attr title "packets received from higher layer, vector(packetBytes)"
vector 113 scenario.client4.ppp[2].ppp.queue packetPushed:vector(packetBytes) ETV
attr interpolationmode none
attr title "packet pushed, vector(packetBytes)"
vector 114 scenario.client4.ppp[2].ppp.queue queueLength:vector ETV
attr interpolationmode sample-hold
attr source "count(packetPushed) - count(packetPopped) - count(packetRemoved) - count(packetDropped)"
attr title "queue length, vector"
vector 115 scenario.client4.ppp[2].ppp.queue packetPopped:vector(packetBytes) ETV
attr interpolationmode none
attr title "packet popped, vector(packetBytes)"
vector 116 scenario.client4.ppp[2].ppp.queue queueingTime:vector ETV
attr interpolationmode none
attr source queueingTime(packetPopped)
attr title "queueing times, vector"
attr unit s
vector 117 scenario.client4.ppp[2].ppp txPk:vector(packetBytes) ETV
attr interpolationmode none
attr source packetSentToLower
attr title "packets transmitted, vector(packetBytes)"
vector 118 scenario.client2.ppp[3].ppp rxPkOk:vector(packetBytes) ETV
attr interpolationmode none
attr source rxPkOk
attr title "packets received OK, vector(packetBytes)"
vector 119 scenario.client2.ppp[3].ppp passedUpPk:vector(packetBytes) ETV
attr interpolationmode none
attr source packetSentToUpper
attr title "packets passed to higher layer, vector(packetBytes)"
vector 120 scenario.client2.tcp.conn-2 rcvSeq:vector ETV
attr interpolationmode sample-hold
vector 121 scenario.client2.tcp.conn-2 rcvAck:vector ETV
attr interpolationmode sample-hold
vector 122 scenario.client2.tcp.conn-30 rcvAdv:vector ETV
attr interpolationmode sample-hold
vector 123 scenario.client2.tcp.conn-30 sndWnd:vector ETV
attr interpolationmode sample-hold
vector 124 scenario.client2.tcp.conn-30 tcpRcvQueueBytes:vector ETV
attr interpolationmode sample-hold
vector 125 scenario.client2.tcp.conn-30 rcvWnd:vector ETV
attr interpolationmode sample-hold
vector 126 scenario.client2.tcp.conn-30 sndAck:vector ETV
attr interpolationmode sample-hold
vector 127 scenario.client2.ppp[3].ppp rcvdPkFromHl:vector(packetBytes) ETV
attr interpolationmode none
attr source packetReceivedFromUpper
attr title "packets received from higher layer, vector(packetBytes)"
vector 128 scenario.client2.ppp[3].ppp.queue packetPushed:vector(packetBytes) ETV
attr interpolationmode none
attr title "packet pushed, vector(packetBytes)"
vector 129 scenario.client2.ppp[3].ppp.queue queueLength:vector ETV
attr interpolationmode sample-hold
attr source "count(packetPushed) - count(packetPopped) - count(packetRemoved) - count(packetDropped)"
attr title "queue length, vector"
vector 130 scenario.client2.ppp[3].ppp.queue packetPopped:vector(packetBytes) ETV
attr interpolationmode none
attr title "packet popped, vector(packetBytes)"
vector 131 scenario.client2.ppp[3].ppp.queue queueingTime:vector ETV
attr interpolationmode none
attr source queueingTime(packetPopped)
attr title "queueing times, vector"
attr unit s
vector 132 scenario.client2.ppp[3].ppp txPk:vector(packetBytes) ETV
attr interpolationmode none
attr source packetSentToLower
attr title "packets transmitted, vector(packetBytes)"
vector 133 scenario.client4.ppp[2].ppp rxPkOk:vector(packetBytes) ETV
attr interpolationmode none
attr source rxPkOk
attr title "packets received OK, vector(packetBytes)"
vector 134 scenario.client4.ppp[2].ppp passedUpPk:vector(packetBytes) ETV
attr interpolationmode none
attr source packetSentToUpper
attr title "packets passed to higher layer, vector(packetBytes)"
vector 135 scenario.client4.tcp.conn-29 rcvSeq:vector ETV
attr interpolationmode sample-hold
vector 136 scenario.client4.tcp.conn-29 rcvAck:vector ETV
attr interpolationmode sample-hold
vector 137 scenario.client4.tcp.conn-29 sndWnd:vector ETV
attr interpolationmode sample-hold
vector 138 scenario.client4.tcp.conn-29 unacked:vector ETV
attr interpolationmode sample-hold
vector 139 scenario.client2.tcp.conn-30 rcvSeq:vector ETV
attr interpolationmode sample-hold
vector 140 scenario.client2.tcp.conn-30 rcvAck:vector ETV
attr interpolationmode sample-hold
vector 141 scenario.client2.tcp.conn-30 unacked:vector ETV
attr interpolationmode sample-hold
vector 142 scenario.client2.tcp.conn-30 cwnd:vector ETV
attr interpolationmode sample-hold
vector 143 scenario.client2.tcp.conn-30 ssthresh:vector ETV
attr interpolationmode sample-hold
vector 144 scenario.client2.tcp.conn-30 dupAcks:vector ETV
attr interpolationmode sample-hold
vector 145 scenario.client4.tcp.conn-29 rtt:vector ETV
attr interpolationmode sample-hold
vector 146 scenario.client4.tcp.conn-29 srtt:vector ETV
attr interpolationmode sample-hold
vector 147 scenario.client4.tcp.conn-29 rttvar:vector ETV
attr interpolationmode sample-hold
vector 148 scenario.client4.tcp.conn-29 rto:vector ETV
attr interpolationmode sample-hold
vector 149 scenario.client4.tcp.conn-29 cwnd:vector ETV
attr interpolationmode sample-hold
vector 150 scenario.client4.tcp.conn-29 ssthresh:vector ETV
attr interpolationmode sample-hold
vector 151 scenario.client4.tcp.conn-29 dupAcks:vector ETV
attr interpolationmode sample-hold
vector 152 scenario.client0.tcp.conn-31 tcpRcvQueueBytes:vector ETV
attr interpolationmode sample-hold
vector 153 scenario.client0.tcp.conn-31 rcvAdv:vector ETV
attr interpolationmode sample-hold
vector 154 scenario.client0.tcp.conn-31 rcvWnd:vector ETV
attr interpolationmode sample-hold
vector 155 scenario.client0.tcp.conn-31 sndAck:vector ETV
attr interpolationmode sample-hold
vector 156 scenario.client4.tcp.conn-4 rcvSeq:vector ETV
attr interpolationmode sample-hold
vector 157 scenario.client4.tcp.conn-4 rcvAck:vector ETV
attr interpolationmode sample-hold
vector 158 scenario.client4.tcp.conn-32 rcvAdv:vector ETV
attr interpolationmode sample-hold
vector 159 scenario.client4.tcp.conn-32 sndWnd:vector ETV
attr interpolationmode sample-hold
vector 160 scenario.client4.tcp.conn-32 tcpRcvQueueBytes:vector ETV
attr interpolationmode sample-hold
vector 161 scenario.client4.tcp.conn-32 rcvWnd:vector ETV
attr interpolationmode sample-hold
vector 162 scenario.client4.tcp.conn-32 sndAck:vector ETV
attr interpolationmode sample-hold
vector 163 scenario.client0.tcp.conn-31 rcvSeq:vector ETV
attr interpolationmode sample-hold
vector 164 scenario.client0.tcp.conn-31 rcvAck:vector ETV
attr interpolationmode sample-hold
vector 165 scenario.client0.tcp.conn-31 sndWnd:vector ETV
attr interpolationmode sample-hold
vector 166 scenario.client0.tcp.conn-31 unacked:vector ETV
attr interpolationmode sample-hold
vector 167 scenario.client4.tcp.conn-32 rcvSeq:vector ETV
attr interpolationmode sample-hold
vector 168 scenario.client4.tcp.conn-32 rcvAck:vector ETV
attr interpolationmode sample-hold
vector 169 scenario.client4.tcp.conn-32 unacked:vector ETV
attr interpolationmode sample-hold
vector 170 scenario.client4.tcp.conn-32 cwnd:vector ETV
attr interpolationmode sample-hold
vector 171 scenario.client4.tcp.conn-32 ssthresh:vector ETV
attr interpolationmode sample-hold
vector 172 scenario.client4.tcp.conn-32 dupAcks:vector ETV
attr interpolationmode sample-hold
vector 173 scenario.client0.tcp.conn-31 rtt:vector ETV
attr interpolationmode sample-hold
vector 174 scenario.client0.tcp.conn-31 srtt:vector ETV
attr interpolationmode sample-hold
vector 175 scenario.client0.tcp.conn-31 rttvar:vector ETV
attr interpolationmode sample-hold
vector 176 scenario.client0.tcp.conn-31 rto:vector ETV
attr interpolationmode sample-hold
vector 177 scenario.client0.tcp.conn-31 cwnd:vector ETV
attr interpolationmode sample-hold
vector 178 scenario.client0.tcp.conn-31 ssthresh:vector ETV
attr interpolationmode sample-hold
vector 179 scenario.client0.tcp.conn-31 dupAcks:vector ETV
attr interpolationmode sample-hold
vector 180 scenario.client4.tcp.conn-33 tcpRcvQueueBytes:vector ETV
attr interpolationmode sample-hold
vector 181 scenario.client4.tcp.conn-33 rcvAdv:vector ETV
attr interpolationmode sample-hold
vector 182 scenario.client4.tcp.conn-33 rcvWnd:vector ETV
attr interpolationmode sample-hold
vector 183 scenario.client4.tcp.conn-33 sndAck:vector ETV
attr interpolationmode sample-hold
vector 184 scenario.client4.ppp[3].ppp rcvdPkFromHl:vector(packetBytes) ETV
attr interpolationmode none
attr source packetReceivedFromUpper
attr title "packets received from higher layer, vector(packetBytes)"
vector 185 scenario.client4.ppp[3].ppp.queue packetPushed:vector(packetBytes) ETV
attr interpolationmode none
attr title "packet pushed, vector(packetBytes)"
vector 186 scenario.client4.ppp[3].ppp.queue queueLength:vector ETV
attr interpolationmode sample-hold
attr source "count(packetPushed) - count(packetPopped) - count(packetRemoved) - count(packetDropped)"
attr title "queue length, vector"
vector 187 scenario.client4.ppp[3].ppp.queue packetPopped:vector(packetBytes) ETV
attr interpolationmode none
attr title "packet popped, vector(packetBytes)"
vector 188 scenario.client4.ppp[3].ppp.queue queueingTime:vector ETV
attr interpolationmode none
attr source queueingTime(packetPopped)
attr title "queueing times, vector"
attr unit s
vector 189 scenario.client4.ppp[3].ppp txPk:vector(packetBytes) ETV
attr interpolationmode none
attr source packetSentToLower
attr title "packets transmitted, vector(packetBytes)"
vector 190 scenario.client3.ppp[3].ppp rxPkOk:vector(packetBytes) ETV
attr interpolationmode none
attr source rxPkOk
attr title "packets received OK, vector(packetBytes)"
vector 191 scenario.client3.ppp[3].ppp passedUpPk:vector(packetBytes) ETV
attr interpolationmode none
attr source packetSentToUpper
attr title "packets passed to higher layer, vector(packetBytes)"
vector 192 scenario.client3.tcp.conn-3 rcvSeq:vector ETV
attr interpolationmode sample-hold
vector 193 scenario.client3.tcp.conn-3 rcvAck:vector ETV
attr interpolationmode sample-hold
vector 194 scenario.client3.tcp.conn-34 rcvAdv:vector ETV
attr interpolationmode sample-hold
vector 195 scenario.client3.tcp.conn-34 sndWnd:vector ETV
attr interpolationmode sample-hold
vector 196 scenario.client3.tcp.conn-34 tcpRcvQueueBytes:vector ETV
attr interpolationmode sample-hold
vector 197 scenario.client3.tcp.conn-34 rcvWnd:vector ETV
attr interpolationmode sample-hold
vector 198 scenario.client3.tcp.conn-34 sndAck:vector ETV
attr interpolationmode sample-hold
vector 199 scenario.client3.ppp[3].ppp rcvdPkFromHl:vector(packetBytes) ETV
attr interpolationmode none
attr source packetReceivedFromUpper
attr title "packets received from higher layer, vector(packetBytes)"
vector 200 scenario.client3.ppp[3].ppp.queue packetPushed:vector(packetBytes) ETV
attr interpolationmode none
attr title "packet pushed, vector(packetBytes)"
vector 201 scenario.client3.ppp[3].ppp.queue queueLength:vector ETV
attr interpolationmode sample-hold
attr source "count(packetPushed) - count(packetPopped) - count(packetRemoved) - count(packetDropped)"
attr title "queue length, vector"
vector 202 scenario.client3.ppp[3].ppp.queue packetPopped:vector(packetBytes) ETV
attr interpolationmode none
attr title "packet popped, vector(packetBytes)"
vector 203 scenario.client3.ppp[3].ppp.queue queueingTime:vector ETV
attr interpolationmode none
attr source queueingTime(packetPopped)
attr title "queueing times, vector"
attr unit s
vector 204 scenario.client3.ppp[3].ppp txPk:vector(packetBytes) ETV
attr interpolationmode none
attr source packetSentToLower
attr title "packets transmitted, vector(packetBytes)"
vector 205 scenario.client4.ppp[3].ppp rxPkOk:vector(packetBytes) ETV
attr interpolationmode none
attr source rxPkOk
attr title "packets received OK, vector(packetBytes)"
vector 206 scenario.client4.ppp[3].ppp passedUpPk:vector(packetBytes) ETV
attr interpolationmode none
attr source packetSentToUpper
attr title "packets passed to higher layer, vector(packetBytes)"
vector 207 scenario.client4.tcp.conn-33 rcvSeq:vector ETV
attr interpolationmode sample-hold
vector 208 scenario.client4.tcp.conn-33 rcvAck:vector ETV
attr interpolationmode sample-hold
vector 209 scenario.client4.tcp.conn-33 sndWnd:vector ETV
attr interpolationmode sample-hold
vector 210 scenario.client4.tcp.conn-33 unacked:vector ETV
attr interpolationmode sample-hold
vector 211 scenario.client3.tcp.conn-34 rcvSeq:vector ETV
attr interpolationmode sample-hold
vector 212 scenario.client3.tcp.conn-34 rcvAck:vector ETV
attr interpolationmode sample-hold
vector 213 scenario.client3.tcp.conn-34 unacked:vector ETV
attr interpolationmode sample-hold
vector 214 scenario.client3.tcp.conn-34 cwnd:vector ETV
attr interpolationmode sample-hold
vector 215 scenario.client3.tcp.conn-34 ssthresh:vector ETV
attr interpolationmode sample-hold
vector 216 scenario.client3.tcp.conn-34 dupAcks:vector ETV
attr interpolationmode sample-hold
vector 217 scenario.client4.tcp.conn-33 rtt:vector ETV
attr interpolationmode sample-hold
vector 218 scenario.client4.tcp.conn-33 srtt:vector ETV
attr interpolationmode sample-hold
vector 219 scenario.client4.tcp.conn-33 rttvar:vector ETV
attr interpolationmode sample-hold
vector 220 scenario.client4.tcp.conn-33 rto:vector ETV
attr interpolationmode sample-hold
vector 221 scenario.client4.tcp.conn-33 cwnd:vector ETV
attr interpolationmode sample-hold
vector 222 scenario.client4.tcp.conn-33 ssthresh:vector ETV
attr interpolationmode sample-hold
vector 223 scenario.client4.tcp.conn-33 dupAcks:vector ETV
attr interpolationmode sample-hold
vector 224 scenario.client2.tcp.conn-35 tcpRcvQueueBytes:vector ETV
attr interpolationmode sample-hold
vector 225 scenario.client2.tcp.conn-35 rcvAdv:vector ETV
attr interpolationmode sample-hold
vector 226 scenario.client2.tcp.conn-35 rcvWnd:vector ETV
attr interpolationmode sample-hold
vector 227 scenario.client2.tcp.conn-35 sndAck:vector ETV
attr interpolationmode sample-hold
vector 228 scenario.client4.tcp.conn-36 rcvAdv:vector ETV
attr interpolationmode sample-hold
vector 229 scenario.client4.tcp.conn-36 sndWnd:vector ETV
attr interpolationmode sample-hold
vector 230 scenario.client4.tcp.conn-36 tcpRcvQueueBytes:vector ETV
attr interpolationmode sample-hold
vector 231 scenario.client4.tcp.conn-36 rcvWnd:vector ETV
attr interpolationmode sample-hold
vector 232 scenario.client4.tcp.conn-36 sndAck:vector ETV
attr interpolationmode sample-hold
vector 233 scenario.client2.tcp.conn-35 rcvSeq:vector ETV
attr interpolationmode sample-hold
vector 234 scenario.client2.tcp.conn-35 rcvAck:vector ETV
attr interpolationmode sample-hold
vector 235 scenario.client2.tcp.conn-35 sndWnd:vector ETV
attr interpolationmode sample-hold
vector 236 scenario.client2.tcp.conn-35 unacked:vector ETV
attr interpolationmode sample-hold
vector 237 scenario.client4.tcp.conn-36 rcvSeq:vector ETV
attr interpolationmode sample-hold
vector 238 scenario.client4.tcp.conn-36 rcvAck:vector ETV
attr interpolationmode sample-hold
vector 239 scenario.client4.tcp.conn-36 unacked:vector ETV
attr interpolationmode sample-hold
vector 240 scenario.client4.tcp.conn-36 cwnd:vector ETV
attr interpolationmode sample-hold
vector 241 scenario.client4.tcp.conn-36 ssthresh:vector ETV
attr interpolationmode sample-hold
vector 242 scenario.client4.tcp.conn-36 dupAcks:vector ETV
attr interpolationmode sample-hold
vector 243 scenario.client2.tcp.conn-35 rtt:vector ETV
attr interpolationmode sample-hold
vector 244 scenario.client2.tcp.conn-35 srtt:vector ETV
attr interpolationmode sample-hold
vector 245 scenario.client2.tcp.conn-35 rttvar:vector ETV
attr interpolationmode sample-hold
vector 246 scenario.client2.tcp.conn-35 rto:vector ETV
attr interpolationmode sample-hold
vector 247 scenario.client2.tcp.conn-35 cwnd:vector ETV
attr interpolationmode sample-hold
vector 248 scenario.client2.tcp.conn-35 ssthresh:vector ETV
attr interpolationmode sample-hold
vector 249 scenario.client2.tcp.conn-35 dupAcks:vector ETV
attr interpolationmode sample-hold
vector 250 scenario.client1.tcp.conn-37 tcpRcvQueueBytes:vector ETV
attr interpolationmode sample-hold
vector 251 scenario.client1.tcp.conn-37 rcvAdv:vector ETV
attr interpolationmode sample-hold
vector 252 scenario.client1.tcp.conn-37 rcvWnd:vector ETV
attr interpolationmode sample-hold
vector 253 scenario.client1.tcp.conn-37 sndAck:vector ETV
attr interpolationmode sample-hold
vector 254 scenario.client4.tcp.conn-38 rcvAdv:vector ETV
attr interpolationmode sample-hold
vector 255 scenario.client4.tcp.conn-38 sndWnd:vector ETV
attr interpolationmode sample-hold
vector 256 scenario.client4.tcp.conn-38 tcpRcvQueueBytes:vector ETV
attr interpolationmode sample-hold
vector 257 scenario.client4.tcp.conn-38 rcvWnd:vector ETV
attr interpolationmode sample-hold
vector 258 scenario.client4.tcp.conn-38 sndAck:vector ETV
attr interpolationmode sample-hold
vector 259 scenario.client1.tcp.conn-37 rcvSeq:vector ETV
attr interpolationmode sample-hold
vector 260 scenario.client1.tcp.conn-37 rcvAck:vector ETV
attr interpolationmode sample-hold
vector 261 scenario.client1.tcp.conn-37 sndWnd:vector ETV
attr interpolationmode sample-hold
vector 262 scenario.client1.tcp.conn-37 unacked:vector ETV
attr interpolationmode sample-hold
vector 263 scenario.client4.tcp.conn-38 rcvSeq:vector ETV
attr interpolationmode sample-hold
vector 264 scenario.client4.tcp.conn-38 rcvAck:vector ETV
attr interpolationmode sample-hold
vector 265 scenario.client4.tcp.conn-38 unacked:vector ETV
attr interpolationmode sample-hold
vector 266 scenario.client4.tcp.conn-38 cwnd:vector ETV
attr interpolationmode sample-hold
vector 267 scenario.client4.tcp.conn-38 ssthresh:vector ETV
attr interpolationmode sample-hold
vector 268 scenario.client4.tcp.conn-38 dupAcks:vector ETV
attr interpolationmode sample-hold
vector 269 scenario.client1.tcp.conn-37 rtt:vector ETV
attr interpolationmode sample-hold
vector 270 scenario.client1.tcp.conn-37 srtt:vector ETV
attr interpolationmode sample-hold
vector 271 scenario.client1.tcp.conn-37 rttvar:vector ETV
attr interpolationmode sample-hold
vector 272 scenario.client1.tcp.conn-37 rto:vector ETV
attr interpolationmode sample-hold
vector 273 scenario.client1.tcp.conn-37 cwnd:vector ETV
attr interpolationmode sample-hold
vector 274 scenario.client1.tcp.conn-37 ssthresh:vector ETV
attr interpolationmode sample-hold
vector 275 scenario.client1.tcp.conn-37 dupAcks:vector ETV
attr interpolationmode sample-hold
vector 276 scenario.client3.tcp.conn-39 tcpRcvQueueBytes:vector ETV
attr interpolationmode sample-hold
vector 277 scenario.client3.tcp.conn-39 rcvAdv:vector ETV
attr interpolationmode sample-hold
vector 278 scenario.client3.tcp.conn-39 rcvWnd:vector ETV
attr interpolationmode sample-hold
vector 279 scenario.client3.tcp.conn-39 sndAck:vector ETV
attr interpolationmode sample-hold
vector 280 scenario.client4.tcp.conn-40 rcvAdv:vector ETV
attr interpolationmode sample-hold
vector 281 scenario.client4.tcp.conn-40 sndWnd:vector ETV
attr interpolationmode sample-hold
vector 282 scenario.client4.tcp.conn-40 tcpRcvQueueBytes:vector ETV
attr interpolationmode sample-hold
vector 283 scenario.client4.tcp.conn-40 rcvWnd:vector ETV
attr interpolationmode sample-hold
vector 284 scenario.client4.tcp.conn-40 sndAck:vector ETV
attr interpolationmode sample-hold
vector 285 scenario.client3.tcp.conn-39 rcvSeq:vector ETV
attr interpolationmode sample-hold
vector 286 scenario.client3.tcp.conn-39 rcvAck:vector ETV
attr interpolationmode sample-hold
vector 287 scenario.client3.tcp.conn-39 sndWnd:vector ETV
attr interpolationmode sample-hold
vector 288 scenario.client3.tcp.conn-39 unacked:vector ETV
attr interpolationmode sample-hold
vector 289 scenario.client4.tcp.conn-40 rcvSeq:vector ETV
attr interpolationmode sample-hold
vector 290 scenario.client4.tcp.conn-40 rcvAck:vector ETV
attr interpolationmode sample-hold
vector 291 scenario.client4.tcp.conn-40 unacked:vector ETV
attr interpolationmode sample-hold
vector 292 scenario.client4.tcp.conn-40 cwnd:vector ETV
attr interpolationmode sample-hold
vector 293 scenario.client4.tcp.conn-40 ssthresh:vector ETV
attr interpolationmode sample-hold
vector 294 scenario.client4.tcp.conn-40 dupAcks:vector ETV
attr interpolationmode sample-hold
vector 295 scenario.client3.tcp.conn-39 rtt:vector ETV
attr interpolationmode sample-hold
vector 296 scenario.client3.tcp.conn-39 srtt:vector ETV
attr interpolationmode sample-hold
vector 297 scenario.client3.tcp.conn-39 rttvar:vector ETV
attr interpolationmode sample-hold
vector 298 scenario.client3.tcp.conn-39 rto:vector ETV
attr interpolationmode sample-hold
vector 299 scenario.client3.tcp.conn-39 cwnd:vector ETV
attr interpolationmode sample-hold
vector 300 scenario.client3.tcp.conn-39 ssthresh:vector ETV
attr interpolationmode sample-hold
vector 301 scenario.client3.tcp.conn-39 dupAcks:vector ETV
attr interpolationmode sample-hold
vector 302 scenario.client0.tcp.conn-41 tcpRcvQueueBytes:vector ETV
attr interpolationmode sample-hold
vector 303 scenario.client0.tcp.conn-41 rcvAdv:vector ETV
attr interpolationmode sample-hold
vector 304 scenario.client0.tcp.conn-41 rcvWnd:vector ETV
attr interpolationmode sample-hold
vector 305 scenario.client0.tcp.conn-41 sndAck:vector ETV
attr interpolationmode sample-hold
vector 306 scenario.client0.ppp[2].ppp rcvdPkFromHl:vector(packetBytes) ETV
attr interpolationmode none
attr source packetReceivedFromUpper
attr title "packets received from higher layer, vector(packetBytes)"
vector 307 scenario.client0.ppp[2].ppp.queue packetPushed:vector(packetBytes) ETV
attr interpolationmode none
attr title "packet pushed, vector(packetBytes)"
vector 308 scenario.client0.ppp[2].ppp.queue queueLength:vector ETV
attr interpolationmode sample-hold
attr source "count(packetPushed) - count(packetPopped) - count(packetRemoved) - count(packetDropped)"
attr title "queue length, vector"
vector 309 scenario.client0.ppp[2].ppp.queue packetPopped:vector(packetBytes) ETV
attr interpolationmode none
attr title "packet popped, vector(packetBytes)"
vector 310 scenario.client0.ppp[2].ppp.queue queueingTime:vector ETV
attr interpolationmode none
attr source queueingTime(packetPopped)
attr title "queueing times, vector"
attr unit s
vector 311 scenario.client0.ppp[2].ppp txPk:vector(packetBytes) ETV
attr interpolationmode none
attr source packetSentToLower
attr title "packets transmitted, vector(packetBytes)"
vector 312 scenario.client3.ppp[0].ppp rxPkOk:vector(packetBytes) ETV
attr interpolationmode none
attr source rxPkOk
attr title "packets received OK, vector(packetBytes)"
vector 313 scenario.client3.ppp[0].ppp passedUpPk:vector(packetBytes) ETV
attr interpolationmode none
attr source packetSentToUpper
attr title "packets passed to higher layer, vector(packetBytes)"
vector 314 scenario.client3.tcp.conn-42 rcvAdv:vector ETV
attr interpolationmode sample-hold
vector 315 scenario.client3.tcp.conn-42 sndWnd:vector ETV
attr interpolationmode sample-hold
vector 316 scenario.client3.tcp.conn-42 tcpRcvQueueBytes:vector ETV
attr interpolationmode sample-hold
vector 317 scenario.client3.tcp.conn-42 rcvWnd:vector ETV
attr interpolationmode sample-hold
vector 318 scenario.client3.tcp.conn-42 sndAck:vector ETV
attr interpolationmode sample-hold
vector 319 scenario.client3.ppp[0].ppp rcvdPkFromHl:vector(packetBytes) ETV
attr interpolationmode none
attr source packetReceivedFromUpper
attr title "packets received from higher layer, vector(packetBytes)"
vector 320 scenario.client3.ppp[0].ppp.queue packetPushed:vector(packetBytes) ETV
attr interpolationmode none
attr title "packet pushed, vector(packetBytes)"
vector 321 scenario.client3.ppp[0].ppp.queue queueLength:vector ETV
attr interpolationmode sample-hold
attr source "count(packetPushed) - count(packetPopped) - count(packetRemoved) - count(packetDropped)"
attr title "queue length, vector"
vector 322 scenario.client3.ppp[0].ppp.queue packetPopped:vector(packetBytes) ETV
attr interpolationmode none
attr title "packet popped, vector(packetBytes)"
vector 323 scenario.client3.ppp[0].ppp.queue queueingTime:vector ETV
attr interpolationmode none
attr source queueingTime(packetPopped)
attr title "queueing times, vector"
attr unit s
vector 324 scenario.client3.ppp[0].ppp txPk:vector(packetBytes) ETV
attr interpolationmode none
attr source packetSentToLower
attr title "packets transmitted, vector(packetBytes)"
vector 325 scenario.client0.ppp[2].ppp rxPkOk:vector(packetBytes) ETV
attr interpolationmode none
attr source rxPkOk
attr title "packets received OK, vector(packetBytes)"
vector 326 scenario.client0.ppp[2].ppp passedUpPk:vector(packetBytes) ETV
attr interpolationmode none
attr source packetSentToUpper
attr title "packets passed to higher layer, vector(packetBytes)"
vector 327 scenario.client0.tcp.conn-41 rcvSeq:vector ETV
attr interpolationmode sample-hold
vector 328 scenario.client0.tcp.conn-41 rcvAck:vector ETV
attr interpolationmode sample-hold
vector 329 scenario.client0.tcp.conn-41 sndWnd:vector ETV
attr interpolationmode sample-hold
vector 330 scenario.client0.tcp.conn-41 unacked:vector ETV
attr interpolationmode sample-hold
vector 331 scenario.client3.tcp.conn-42 rcvSeq:vector ETV
attr interpolationmode sample-hold
vector 332 scenario.client3.tcp.conn-42 rcvAck:vector ETV
attr interpolationmode sample-hold
vector 333 scenario.client3.tcp.conn-42 unacked:vector ETV
attr interpolationmode sample-hold
vector 334 scenario.client3.tcp.conn-42 cwnd:vector ETV
attr interpolationmode sample-hold
vector 335 scenario.client3.tcp.conn-42 ssthresh:vector ETV
attr interpolationmode sample-hold
vector 336 scenario.client3.tcp.conn-42 dupAcks:vector ETV
attr interpolationmode sample-hold
vector 337 scenario.client0.tcp.conn-41 rtt:vector ETV
attr interpolationmode sample-hold
vector 338 scenario.client0.tcp.conn-41 srtt:vector ETV
attr interpolationmode sample-hold
vector 339 scenario.client0.tcp.conn-41 rttvar:vector ETV
attr interpolationmode sample-hold
vector 340 scenario.client0.tcp.conn-41 rto:vector ETV
attr interpolationmode sample-hold
vector 341 scenario.client0.tcp.conn-41 cwnd:vector ETV
attr interpolationmode sample-hold
vector 342 scenario.client0.tcp.conn-41 ssthresh:vector ETV
attr interpolationmode sample-hold
vector 343 scenario.client0.tcp.conn-41 dupAcks:vector ETV
attr interpolationmode sample-hold
vector 344 scenario.client0.tcp.conn-43 tcpRcvQueueBytes:vector ETV
attr interpolationmode sample-hold
vector 345 scenario.client0.tcp.conn-43 rcvAdv:vector ETV
attr interpolationmode sample-hold
vector 346 scenario.client0.tcp.conn-43 rcvWnd:vector ETV
attr interpolationmode sample-hold
vector 347 scenario.client0.tcp.conn-43 sndAck:vector ETV
attr interpolationmode sample-hold
vector 348 scenario.client0.ppp[0].ppp rcvdPkFromHl:vector(packetBytes) ETV
attr interpolationmode none
attr source packetReceivedFromUpper
attr title "packets received from higher layer, vector(packetBytes)"
vector 349 scenario.client0.ppp[0].ppp.queue packetPushed:vector(packetBytes) ETV
attr interpolationmode none
attr title "packet pushed, vector(packetBytes)"
vector 350 scenario.client0.ppp[0].ppp.queue queueLength:vector ETV
attr interpolationmode sample-hold
attr source "count(packetPushed) - count(packetPopped) - count(packetRemoved) - count(packetDropped)"
attr title "queue length, vector"
vector 351 scenario.client0.ppp[0].ppp.queue packetPopped:vector(packetBytes) ETV
attr interpolationmode none
attr title "packet popped, vector(packetBytes)"
vector 352 scenario.client0.ppp[0].ppp.queue queueingTime:vector ETV
attr interpolationmode none
attr source queueingTime(packetPopped)
attr title "queueing times, vector"
attr unit s
vector 353 scenario.client0.ppp[0].ppp txPk:vector(packetBytes) ETV
attr interpolationmode none
attr source packetSentToLower
attr title "packets transmitted, vector(packetBytes)"
vector 354 scenario.client1.ppp[0].ppp rxPkOk:vector(packetBytes) ETV
attr interpolationmode none
attr source rxPkOk
attr title "packets received OK, vector(packetBytes)"
vector 355 scenario.client1.ppp[0].ppp passedUpPk:vector(packetBytes) ETV
attr interpolationmode none
attr source packetSentToUpper
attr title "packets passed to higher layer, vector(packetBytes)"
vector 356 scenario.client1.tcp.conn-44 rcvAdv:vector ETV
attr interpolationmode sample-hold
vector 357 scenario.client1.tcp.conn-44 sndWnd:vector ETV
attr interpolationmode sample-hold
vector 358 scenario.client1.tcp.conn-44 tcpRcvQueueBytes:vector ETV
attr interpolationmode sample-hold
vector 359 scenario.client1.tcp.conn-44 rcvWnd:vector ETV
attr interpolationmode sample-hold
vector 360 scenario.client1.tcp.conn-44 sndAck:vector ETV
attr interpolationmode sample-hold
vector 361 scenario.client1.ppp[0].ppp rcvdPkFromHl:vector(packetBytes) ETV
attr interpolationmode none
attr source packetReceivedFromUpper
attr title "packets received from higher layer, vector(packetBytes)"
vector 362 scenario.client1.ppp[0].ppp.queue packetPushed:vector(packetBytes) ETV
attr interpolationmode none
attr title "packet pushed, vector(packetBytes)"
vector 363 scenario.client1.ppp[0].ppp.queue queueLength:vector ETV
attr interpolationmode sample-hold
attr source "count(packetPushed) - count(packetPopped) - count(packetRemoved) - count(packetDropped)"
attr title "queue length, vector"
vector 364 scenario.client1.ppp[0].ppp.queue packetPopped:vector(packetBytes) ETV
attr interpolationmode none
attr title "packet popped, vector(packetBytes)"
vector 365 scenario.client1.ppp[0].ppp.queue queueingTime:vector ETV
attr interpolationmode none
attr source queueingTime(packetPopped)
attr title "queueing times, vector"
attr unit s
vector 366 scenario.client1.ppp[0].ppp txPk:vector(packetBytes) ETV
attr interpolationmode none
attr source packetSentToLower
attr title "packets transmitted, vector(packetBytes)"
vector 367 scenario.client0.ppp[0].ppp rxPkOk:vector(packetBytes) ETV
attr interpolationmode none
attr source rxPkOk
attr title "packets received OK, vector(packetBytes)"
vector 368 scenario.client0.ppp[0].ppp passedUpPk:vector(packetBytes) ETV
attr interpolationmode none
attr source packetSentToUpper
attr title "packets passed to higher layer, vector(packetBytes)"
vector 369 scenario.client0.tcp.conn-43 rcvSeq:vector ETV
attr interpolationmode sample-hold
vector 370 scenario.client0.tcp.conn-43 rcvAck:vector ETV
attr interpolationmode sample-hold
vector 371 scenario.client0.tcp.conn-43 sndWnd:vector ETV
attr interpolationmode sample-hold
vector 372 scenario.client0.tcp.conn-43 unacked:vector ETV
attr interpolationmode sample-hold
vector 373 scenario.client1.tcp.conn-44 rcvSeq:vector ETV
attr interpolationmode sample-hold
vector 374 scenario.client1.tcp.conn-44 rcvAck:vector ETV
attr interpolationmode sample-hold
vector 375 scenario.client1.tcp.conn-44 unacked:vector ETV
attr interpolationmode sample-hold
vector 376 scenario.client1.tcp.conn-44 cwnd:vector ETV
attr interpolationmode sample-hold
vector 377 scenario.client1.tcp.conn-44 ssthresh:vector ETV
attr interpolationmode sample-hold
vector 378 scenario.client1.tcp.conn-44 dupAcks:vector ETV
attr interpolationmode sample-hold
vector 379 scenario.client0.tcp.conn-43 rtt:vector ETV
attr interpolationmode sample-hold
vector 380 scenario.client0.tcp.conn-43 srtt:vector ETV
attr interpolationmode sample-hold
vector 381 scenario.client0.tcp.conn-43 rttvar:vector ETV
attr interpolationmode sample-hold
vector 382 scenario.client0.tcp.conn-43 rto:vector ETV
attr interpolationmode sample-hold
vector 383 scenario.client0.tcp.conn-43 cwnd:vector ETV
attr interpolationmode sample-hold
vector 384 scenario.client0.tcp.conn-43 ssthresh:vector ETV
attr interpolationmode sample-hold
vector 385 scenario.client0.tcp.conn-43 dupAcks:vector ETV
attr interpolationmode sample-hold
vector 386 scenario.client0.tcp.conn-45 tcpRcvQueueBytes:vector ETV
attr interpolationmode sample-hold
vector 387 scenario.client0.tcp.conn-45 rcvAdv:vector ETV
attr interpolationmode sample-hold
vector 388 scenario.client0.tcp.conn-45 rcvWnd:vector ETV
attr interpolationmode sample-hold
vector 389 scenario.client0.tcp.conn-45 sndAck:vector ETV
attr interpolationmode sample-hold
vector 390 scenario.client0.ppp[1].ppp rcvdPkFromHl:vector(packetBytes) ETV
attr interpolationmode none
attr source packetReceivedFromUpper
attr title "packets received from higher layer, vector(packetBytes)"
vector 391 scenario.client0.ppp[1].ppp.queue packetPushed:vector(packetBytes) ETV
attr interpolationmode none
attr title "packet pushed, vector(packetBytes)"
vector 392 scenario.client0.ppp[1].ppp.queue queueLength:vector ETV
attr interpolationmode sample-hold
attr source "count(packetPushed) - count(packetPopped) - count(packetRemoved) - count(packetDropped)"
attr title "queue length, vector"
vector 393 scenario.client0.ppp[1].ppp.queue packetPopped:vector(packetBytes) ETV
attr interpolationmode none
attr title "packet popped, vector(packetBytes)"
vector 394 scenario.client0.ppp[1].ppp.queue queueingTime:vector ETV
attr interpolationmode none
attr source queueingTime(packetPopped)
attr title "queueing times, vector"
attr unit s
vector 395 scenario.client0.ppp[1].ppp txPk:vector(packetBytes) ETV
attr interpolationmode none
attr source packetSentToLower
attr title "packets transmitted, vector(packetBytes)"
vector 396 scenario.client2.ppp[0].ppp rxPkOk:vector(packetBytes) ETV
attr interpolationmode none
attr source rxPkOk
attr title "packets received OK, vector(packetBytes)"
vector 397 scenario.client2.ppp[0].ppp passedUpPk:vector(packetBytes) ETV
attr interpolationmode none
attr source packetSentToUpper
attr title "packets passed to higher layer, vector(packetBytes)"
vector 398 scenario.client2.tcp.conn-46 rcvAdv:vector ETV
attr interpolationmode sample-hold
vector 399 scenario.client2.tcp.conn-46 sndWnd:vector ETV
attr interpolationmode sample-hold
vector 400 scenario.client2.tcp.conn-46 tcpRcvQueueBytes:vector ETV
attr interpolationmode sample-hold
vector 401 scenario.client2.tcp.conn-46 rcvWnd:vector ETV
attr interpolationmode sample-hold
vector 402 scenario.client2.tcp.conn-46 sndAck:vector ETV
attr interpolationmode sample-hold
vector 403 scenario.client2.ppp[0].ppp rcvdPkFromHl:vector(packetBytes) ETV
attr interpolationmode none
attr source packetReceivedFromUpper
attr title "packets received from higher layer, vector(packetBytes)"
vector 404 scenario.client2.ppp[0].ppp.queue packetPushed:vector(packetBytes) ETV
attr interpolationmode none
attr title "packet pushed, vector(packetBytes)"
vector 405 scenario.client2.ppp[0].ppp.queue queueLength:vector ETV
attr interpolationmode sample-hold
attr source "count(packetPushed) - count(packetPopped) - count(packetRemoved) - count(packetDropped)"
attr title "queue length, vector"
vector 406 scenario.client2.ppp[0].ppp.queue packetPopped:vector(packetBytes) ETV
attr interpolationmode none
attr title "packet popped, vector(packetBytes)"
vector 407 scenario.client2.ppp[0].ppp.queue queueingTime:vector ETV
attr interpolationmode none
attr source queueingTime(packetPopped)
attr title "queueing times, vector"
attr unit s
vector 408 scenario.client2.ppp[0].ppp txPk:vector(packetBytes) ETV
attr interpolationmode none
attr source packetSentToLower
attr title "packets transmitted, vector(packetBytes)"
vector 409 scenario.client0.ppp[1].ppp rxPkOk:vector(packetBytes) ETV
attr interpolationmode none
attr source rxPkOk
attr title "packets received OK, vector(packetBytes)"
vector 410 scenario.client0.ppp[1].ppp passedUpPk:vector(packetBytes) ETV
attr interpolationmode none
attr source packetSentToUpper
attr title "packets passed to higher layer, vector(packetBytes)"
vector 411 scenario.client0.tcp.conn-45 rcvSeq:vector ETV
attr interpolationmode sample-hold
vector 412 scenario.client0.tcp.conn-45 rcvAck:vector ETV
attr interpolationmode sample-hold
vector 413 scenario.client0.tcp.conn-45 sndWnd:vector ETV
attr interpolationmode sample-hold
vector 414 scenario.client0.tcp.conn-45 unacked:vector ETV
attr interpolationmode sample-hold
vector 415 scenario.client2.tcp.conn-46 rcvSeq:vector ETV
attr interpolationmode sample-hold
vector 416 scenario.client2.tcp.conn-46 rcvAck:vector ETV
attr interpolationmode sample-hold
vector 417 scenario.client2.tcp.conn-46 unacked:vector ETV
attr interpolationmode sample-hold
vector 418 scenario.client2.tcp.conn-46 cwnd:vector ETV
attr interpolationmode sample-hold
vector 419 scenario.client2.tcp.conn-46 ssthresh:vector ETV
attr interpolationmode sample-hold
vector 420 scenario.client2.tcp.conn-46 dupAcks:vector ETV
attr interpolationmode sample-hold
vector 421 scenario.client0.tcp.conn-45 rtt:vector ETV
attr interpolationmode sample-hold
vector 422 scenario.client0.tcp.conn-45 srtt:vector ETV
attr interpolationmode sample-hold
vector 423 scenario.client0.tcp.conn-45 rttvar:vector ETV
attr interpolationmode sample-hold
vector 424 scenario.client0.tcp.conn-45 rto:vector ETV
attr interpolationmode sample-hold
vector 425 scenario.client0.tcp.conn-45 cwnd:vector ETV
attr interpolationmode sample-hold
vector 426 scenario.client0.tcp.conn-45 ssthresh:vector ETV
attr interpolationmode sample-hold
vector 427 scenario.client0.tcp.conn-45 dupAcks:vector ETV
attr interpolationmode sample-hold
vector 428 scenario.client1.tcp.conn-47 tcpRcvQueueBytes:vector ETV
attr interpolationmode sample-hold
vector 429 scenario.client1.tcp.conn-47 rcvAdv:vector ETV
attr interpolationmode sample-hold
vector 430 scenario.client1.tcp.conn-47 rcvWnd:vector ETV
attr interpolationmode sample-hold
vector 431 scenario.client1.tcp.conn-47 sndAck:vector ETV
attr interpolationmode sample-hold
vector 432 scenario.client1.ppp[2].ppp rcvdPkFromHl:vector(packetBytes) ETV
attr interpolationmode none
attr source packetReceivedFromUpper
attr title "packets received from higher layer, vector(packetBytes)"
vector 433 scenario.client1.ppp[2].ppp.queue packetPushed:vector(packetBytes) ETV
attr interpolationmode none
attr title "packet pushed, vector(packetBytes)"
vector 434 scenario.client1.ppp[2].ppp.queue queueLength:vector ETV
attr interpolationmode sample-hold
attr source "count(packetPushed) - count(packetPopped) - count(packetRemoved) - count(packetDropped)"
attr title "queue length, vector"
vector 435 scenario.client1.ppp[2].ppp.queue packetPopped:vector(packetBytes) ETV
attr interpolationmode none
attr title "packet popped, vector(packetBytes)"
vector 436 scenario.client1.ppp[2].ppp.queue queueingTime:vector ETV
attr interpolationmode none
attr source queueingTime(packetPopped)
attr title "queueing times, vector"
attr unit s
vector 437 scenario.client1.ppp[2].ppp txPk:vector(packetBytes) ETV
attr interpolationmode none
attr source packetSentToLower
attr title "packets transmitted, vector(packetBytes)"
vector 438 scenario.client3.ppp[1].ppp rxPkOk:vector(packetBytes) ETV
attr interpolationmode none
attr source rxPkOk
attr title "packets received OK, vector(packetBytes)"
vector 439 scenario.client3.ppp[1].ppp passedUpPk:vector(packetBytes) ETV
attr interpolationmode none
attr source packetSentToUpper
attr title "packets passed to higher layer, vector(packetBytes)"
vector 440 scenario.client3.tcp.conn-48 rcvAdv:vector ETV
attr interpolationmode sample-hold
vector 441 scenario.client3.tcp.conn-48 sndWnd:vector ETV
attr interpolationmode sample-hold
vector 442 scenario.client3.tcp.conn-48 tcpRcvQueueBytes:vector ETV
attr interpolationmode sample-hold
vector 443 scenario.client3.tcp.conn-48 rcvWnd:vector ETV
attr interpolationmode sample-hold
vector 444 scenario.client3.tcp.conn-48 sndAck:vector ETV
attr interpolationmode sample-hold
vector 445 scenario.client3.ppp[1].ppp rcvdPkFromHl:vector(packetBytes) ETV
attr interpolationmode none
attr source packetReceivedFromUpper
attr title "packets received from higher layer, vector(packetBytes)"
vector 446 scenario.client3.ppp[1].ppp.queue packetPushed:vector(packetBytes) ETV
attr interpolationmode none
attr title "packet pushed, vector(packetBytes)"
vector 447 scenario.client3.ppp[1].ppp.queue queueLength:vector ETV
attr interpolationmode sample-hold
attr source "count(packetPushed) - count(packetPopped) - count(packetRemoved) - count(packetDropped)"
attr title "queue length, vector"
vector 448 scenario.client3.ppp[1].ppp.queue packetPopped:vector(packetBytes) ETV
attr interpolationmode none
attr title "packet popped, vector(packetBytes)"
vector 449 scenario.client3.ppp[1].ppp.queue queueingTime:vector ETV
attr interpolationmode none
attr source queueingTime(packetPopped)
attr title "queueing times, vector"
attr unit s
vector 450 scenario.client3.ppp[1].ppp txPk:vector(packetBytes) ETV
attr interpolationmode none
attr source packetSentToLower
attr title "packets transmitted, vector(packetBytes)"
vector 451 scenario.client1.ppp[2].ppp rxPkOk:vector(packetBytes) ETV
attr interpolationmode none
attr source rxPkOk
attr title "packets received OK, vector(packetBytes)"
vector 452 scenario.client1.ppp[2].ppp passedUpPk:vector(packetBytes) ETV
attr interpolationmode none
attr source packetSentToUpper
attr title "packets passed to higher layer, vector(packetBytes)"
vector 453 scenario.client1.tcp.conn-47 rcvSeq:vector ETV
attr interpolationmode sample-hold
vector 454 scenario.client1.tcp.conn-47 rcvAck:vector ETV
attr interpolationmode sample-hold
vector 455 scenario.client1.tcp.conn-47 sndWnd:vector ETV
attr interpolationmode sample-hold
vector 456 scenario.client1.tcp.conn-47 unacked:vector ETV
attr interpolationmode sample-hold
vector 457 scenario.client3.tcp.conn-48 rcvSeq:vector ETV
attr interpolationmode sample-hold
vector 458 scenario.client3.tcp.conn-48 rcvAck:vector ETV
attr interpolationmode sample-hold
vector 459 scenario.client3.tcp.conn-48 unacked:vector ETV
attr interpolationmode sample-hold
vector 460 scenario.client3.tcp.conn-48 cwnd:vector ETV
attr interpolationmode sample-hold
vector 461 scenario.client3.tcp.conn-48 ssthresh:vector ETV
attr interpolationmode sample-hold
vector 462 scenario.client3.tcp.conn-48 dupAcks:vector ETV
attr interpolationmode sample-hold
vector 463 scenario.client1.tcp.conn-47 rtt:vector ETV
attr interpolationmode sample-hold
vector 464 scenario.client1.tcp.conn-47 srtt:vector ETV
attr interpolationmode sample-hold
vector 465 scenario.client1.tcp.conn-47 rttvar:vector ETV
attr interpolationmode sample-hold
vector 466 scenario.client1.tcp.conn-47 rto:vector ETV
attr interpolationmode sample-hold
vector 467 scenario.client1.tcp.conn-47 cwnd:vector ETV
attr interpolationmode sample-hold
vector 468 scenario.client1.tcp.conn-47 ssthresh:vector ETV
attr interpolationmode sample-hold
vector 469 scenario.client1.tcp.conn-47 dupAcks:vector ETV
attr interpolationmode sample-hold
vector 470 scenario.client2.tcp.conn-49 tcpRcvQueueBytes:vector ETV
attr interpolationmode sample-hold
vector 471 scenario.client2.tcp.conn-49 rcvAdv:vector ETV
attr interpolationmode sample-hold
vector 472 scenario.client2.tcp.conn-49 rcvWnd:vector ETV
attr interpolationmode sample-hold
vector 473 scenario.client2.tcp.conn-49 sndAck:vector ETV
attr interpolationmode sample-hold
vector 474 scenario.client2.ppp[2].ppp rcvdPkFromHl:vector(packetBytes) ETV
attr interpolationmode none
attr source packetReceivedFromUpper
attr title "packets received from higher layer, vector(packetBytes)"
vector 475 scenario.client2.ppp[2].ppp.queue packetPushed:vector(packetBytes) ETV
attr interpolationmode none
attr title "packet pushed, vector(packetBytes)"
vector 476 scenario.client2.ppp[2].ppp.queue queueLength:vector ETV
attr interpolationmode sample-hold
attr source "count(packetPushed) - count(packetPopped) - count(packetRemoved) - count(packetDropped)"
attr title "queue length, vector"
vector 477 scenario.client2.ppp[2].ppp.queue packetPopped:vector(packetBytes) ETV
attr interpolationmode none
attr title "packet popped, vector(packetBytes)"
vector 478 scenario.client2.ppp[2].ppp.queue queueingTime:vector ETV
attr interpolationmode none
attr source queueingTime(packetPopped)
attr title "queueing times, vector"
attr unit s
vector 479 scenario.client2.ppp[2].ppp txPk:vector(packetBytes) ETV
attr interpolationmode none
attr source packetSentToLower
attr title "packets transmitted, vector(packetBytes)"
vector 480 scenario.client3.ppp[2].ppp rxPkOk:vector(packetBytes) ETV
attr interpolationmode none
attr source rxPkOk
attr title "packets received OK, vector(packetBytes)"
vector 481 scenario.client3.ppp[2].ppp passedUpPk:vector(packetBytes) ETV
attr interpolationmode none
attr source packetSentToUpper
attr title "packets passed to higher layer, vector(packetBytes)"
vector 482 scenario.client3.tcp.conn-50 rcvAdv:vector ETV
attr interpolationmode sample-hold
vector 483 scenario.client3.tcp.conn-50 sndWnd:vector ETV
attr interpolationmode sample-hold
vector 484 scenario.client3.tcp.conn-50 tcpRcvQueueBytes:vector ETV
attr interpolationmode sample-hold
vector 485 scenario.client3.tcp.conn-50 rcvWnd:vector ETV
attr interpolationmode sample-hold
vector 486 scenario.client3.tcp.conn-50 sndAck:vector ETV
attr interpolationmode sample-hold
vector 487 scenario.client3.ppp[2].ppp rcvdPkFromHl:vector(packetBytes) ETV
attr interpolationmode none
attr source packetReceivedFromUpper
attr title "packets received from higher layer, vector(packetBytes)"
vector 488 scenario.client3.ppp[2].ppp.queue packetPushed:vector(packetBytes) ETV
attr interpolationmode none
attr title "packet pushed, vector(packetBytes)"
vector 489 scenario.client3.ppp[2].ppp.queue queueLength:vector ETV
attr interpolationmode sample-hold
attr source "count(packetPushed) - count(packetPopped) - count(packetRemoved) - count(packetDropped)"
attr title "queue length, vector"
vector 490 scenario.client3.ppp[2].ppp.queue packetPopped:vector(packetBytes) ETV
attr interpolationmode none
attr title "packet popped, vector(packetBytes)"
vector 491 scenario.client3.ppp[2].ppp.queue queueingTime:vector ETV
attr interpolationmode none
attr source queueingTime(packetPopped)
attr title "queueing times, vector"
attr unit s
vector 492 scenario.client3.ppp[2].ppp txPk:vector(packetBytes) ETV
attr interpolationmode none
attr source packetSentToLower
attr title "packets transmitted, vector(packetBytes)"
vector 493 scenario.client2.ppp[2].ppp rxPkOk:vector(packetBytes) ETV
attr interpolationmode none
attr source rxPkOk
attr title "packets received OK, vector(packetBytes)"
vector 494 scenario.client2.ppp[2].ppp passedUpPk:vector(packetBytes) ETV
attr interpolationmode none
attr source packetSentToUpper
attr title "packets passed to higher layer, vector(packetBytes)"
vector 495 scenario.client2.tcp.conn-49 rcvSeq:vector ETV
attr interpolationmode sample-hold
vector 496 scenario.client2.tcp.conn-49 rcvAck:vector ETV
attr interpolationmode sample-hold
vector 497 scenario.client2.tcp.conn-49 sndWnd:vector ETV
attr interpolationmode sample-hold
vector 498 scenario.client2.tcp.conn-49 unacked:vector ETV
attr interpolationmode sample-hold
vector 499 scenario.client3.tcp.conn-50 rcvSeq:vector ETV
attr interpolationmode sample-hold
vector 500 scenario.client3.tcp.conn-50 rcvAck:vector ETV
attr interpolationmode sample-hold
vector 501 scenario.client3.tcp.conn-50 unacked:vector ETV
attr interpolationmode sample-hold
vector 502 scenario.client3.tcp.conn-50 cwnd:vector ETV
attr interpolationmode sample-hold
vector 503 scenario.client3.tcp.conn-50 ssthresh:vector ETV
attr interpolationmode sample-hold
vector 504 scenario.client3.tcp.conn-50 dupAcks:vector ETV
attr interpolationmode sample-hold
vector 505 scenario.client2.tcp.conn-49 rtt:vector ETV
attr interpolationmode sample-hold
vector 506 scenario.client2.tcp.conn-49 srtt:vector ETV
attr interpolationmode sample-hold
vector 507 scenario.client2.tcp.conn-49 rttvar:vector ETV
attr interpolationmode sample-hold
vector 508 scenario.client2.tcp.conn-49 rto:vector ETV
attr interpolationmode sample-hold
vector 509 scenario.client2.tcp.conn-49 cwnd:vector ETV
attr interpolationmode sample-hold
vector 510 scenario.client2.tcp.conn-49 ssthresh:vector ETV
attr interpolationmode sample-hold
vector 511 scenario.client2.tcp.conn-49 dupAcks:vector ETV
attr interpolationmode sample-hold
vector 512 scenario.client3.tcp.conn-51 tcpRcvQueueBytes:vector ETV
attr interpolationmode sample-hold
vector 513 scenario.client3.tcp.conn-51 rcvAdv:vector ETV
attr interpolationmode sample-hold
vector 514 scenario.client3.tcp.conn-51 rcvWnd:vector ETV
attr interpolationmode sample-hold
vector 515 scenario.client3.tcp.conn-51 sndAck:vector ETV
attr interpolationmode sample-hold
vector 516 scenario.client1.tcp.conn-52 rcvAdv:vector ETV
attr interpolationmode sample-hold
vector 517 scenario.client1.tcp.conn-52 sndWnd:vector ETV
attr interpolationmode sample-hold
vector 518 scenario.client1.tcp.conn-52 tcpRcvQueueBytes:vector ETV
attr interpolationmode sample-hold
vector 519 scenario.client1.tcp.conn-52 rcvWnd:vector ETV
attr interpolationmode sample-hold
vector 520 scenario.client1.tcp.conn-52 sndAck:vector ETV
attr interpolationmode sample-hold
vector 521 scenario.client3.tcp.conn-51 rcvSeq:vector ETV
attr interpolationmode sample-hold
vector 522 scenario.client3.tcp.conn-51 rcvAck:vector ETV
attr interpolationmode sample-hold
vector 523 scenario.client3.tcp.conn-51 sndWnd:vector ETV
attr interpolationmode sample-hold
vector 524 scenario.client3.tcp.conn-51 unacked:vector ETV
attr interpolationmode sample-hold
vector 525 scenario.client1.tcp.conn-52 rcvSeq:vector ETV
attr interpolationmode sample-hold
vector 526 scenario.client1.tcp.conn-52 rcvAck:vector ETV
attr interpolationmode sample-hold
vector 527 scenario.client1.tcp.conn-52 unacked:vector ETV
attr interpolationmode sample-hold
vector 528 scenario.client1.tcp.conn-52 cwnd:vector ETV
attr interpolationmode sample-hold
vector 529 scenario.client1.tcp.conn-52 ssthresh:vector ETV
attr interpolationmode sample-hold
vector 530 scenario.client1.tcp.conn-52 dupAcks:vector ETV
attr interpolationmode sample-hold
vector 531 scenario.client3.tcp.conn-51 rtt:vector ETV
attr interpolationmode sample-hold
vector 532 scenario.client3.tcp.conn-51 srtt:vector ETV
attr interpolationmode sample-hold
vector 533 scenario.client3.tcp.conn-51 rttvar:vector ETV
attr interpolationmode sample-hold
vector 534 scenario.client3.tcp.conn-51 rto:vector ETV
attr interpolationmode sample-hold
vector 535 scenario.client3.tcp.conn-51 cwnd:vector ETV
attr interpolationmode sample-hold
vector 536 scenario.client3.tcp.conn-51 ssthresh:vector ETV
attr interpolationmode sample-hold
vector 537 scenario.client3.tcp.conn-51 dupAcks:vector ETV
attr interpolationmode sample-hold
vector 538 scenario.client3.tcp.conn-53 tcpRcvQueueBytes:vector ETV
attr interpolationmode sample-hold
vector 539 scenario.client3.tcp.conn-53 rcvAdv:vector ETV
attr interpolationmode sample-hold
vector 540 scenario.client3.tcp.conn-53 rcvWnd:vector ETV
attr interpolationmode sample-hold
vector 541 scenario.client3.tcp.conn-53 sndAck:vector ETV
attr interpolationmode sample-hold
vector 542 scenario.client2.tcp.conn-54 rcvAdv:vector ETV
attr interpolationmode sample-hold
vector 543 scenario.client2.tcp.conn-54 sndWnd:vector ETV
attr interpolationmode sample-hold
vector 544 scenario.client2.tcp.conn-54 tcpRcvQueueBytes:vector ETV
attr interpolationmode sample-hold
vector 545 scenario.client2.tcp.conn-54 rcvWnd:vector ETV
attr interpolationmode sample-hold
vector 546 scenario.client2.tcp.conn-54 sndAck:vector ETV
attr interpolationmode sample-hold
vector 547 scenario.client3.tcp.conn-53 rcvSeq:vector ETV
attr interpolationmode sample-hold
vector 548 scenario.client3.tcp.conn-53 rcvAck:vector ETV
attr interpolationmode sample-hold
vector 549 scenario.client3.tcp.conn-53 sndWnd:vector ETV
attr interpolationmode sample-hold
vector 550 scenario.client3.tcp.conn-53 unacked:vector ETV
attr interpolationmode sample-hold
vector 551 scenario.client2.tcp.conn-54 rcvSeq:vector ETV
attr interpolationmode sample-hold
vector 552 scenario.client2.tcp.conn-54 rcvAck:vector ETV
attr interpolationmode sample-hold
vector 553 scenario.client2.tcp.conn-54 unacked:vector ETV
attr interpolationmode sample-hold
vector 554 scenario.client2.tcp.conn-54 cwnd:vector ETV
attr interpolationmode sample-hold
vector 555 scenario.client2.tcp.conn-54 ssthresh:vector ETV
attr interpolationmode sample-hold
vector 556 scenario.client2.tcp.conn-54 dupAcks:vector ETV
attr interpolationmode sample-hold
vector 557 scenario.client3.tcp.conn-53 rtt:vector ETV
attr interpolationmode sample-hold
vector 558 scenario.client3.tcp.conn-53 srtt:vector ETV
attr interpolationmode sample-hold
vector 559 scenario.client3.tcp.conn-53 rttvar:vector ETV
attr interpolationmode sample-hold
vector 560 scenario.client3.tcp.conn-53 rto:vector ETV
attr interpolationmode sample-hold
vector 561 scenario.client3.tcp.conn-53 cwnd:vector ETV
attr interpolationmode sample-hold
vector 562 scenario.client3.tcp.conn-53 ssthresh:vector ETV
attr interpolationmode sample-hold
vector 563 scenario.client3.tcp.conn-53 dupAcks:vector ETV
attr interpolationmode sample-hold
vector 564 scenario.client1.tcp.conn-55 tcpRcvQueueBytes:vector ETV
attr interpolationmode sample-hold
vector 565 scenario.client1.tcp.conn-55 rcvAdv:vector ETV
attr interpolationmode sample-hold
vector 566 scenario.client1.tcp.conn-55 rcvWnd:vector ETV
attr interpolationmode sample-hold
vector 567 scenario.client1.tcp.conn-55 sndAck:vector ETV
attr interpolationmode sample-hold
vector 568 scenario.client0.tcp.conn-56 rcvAdv:vector ETV
attr interpolationmode sample-hold
vector 569 scenario.client0.tcp.conn-56 sndWnd:vector ETV
attr interpolationmode sample-hold
vector 570 scenario.client0.tcp.conn-56 tcpRcvQueueBytes:vector ETV
attr interpolationmode sample-hold
vector 571 scenario.client0.tcp.conn-56 rcvWnd:vector ETV
attr interpolationmode sample-hold
vector 572 scenario.client0.tcp.conn-56 sndAck:vector ETV
attr interpolationmode sample-hold
vector 573 scenario.client1.tcp.conn-55 rcvSeq:vector ETV
attr interpolationmode sample-hold
vector 574 scenario.client1.tcp.conn-55 rcvAck:vector ETV
attr interpolationmode sample-hold
vector 575 scenario.client1.tcp.conn-55 sndWnd:vector ETV
attr interpolationmode sample-hold
vector 576 scenario.client1.tcp.conn-55 unacked:vector ETV
attr interpolationmode sample-hold
vector 577 scenario.client0.tcp.conn-56 rcvSeq:vector ETV
attr interpolationmode sample-hold
vector 578 scenario.client0.tcp.conn-56 rcvAck:vector ETV
attr interpolationmode sample-hold
vector 579 scenario.client0.tcp.conn-56 unacked:vector ETV
attr interpolationmode sample-hold
vector 580 scenario.client0.tcp.conn-56 cwnd:vector ETV
attr interpolationmode sample-hold
vector 581 scenario.client0.tcp.conn-56 ssthresh:vector ETV
attr interpolationmode sample-hold
vector 582 scenario.client0.tcp.conn-56 dupAcks:vector ETV
attr interpolationmode sample-hold
vector 583 scenario.client1.tcp.conn-55 rtt:vector ETV
attr interpolationmode sample-hold
vector 584 scenario.client1.tcp.conn-55 srtt:vector ETV
attr interpolationmode sample-hold
vector 585 scenario.client1.tcp.conn-55 rttvar:vector ETV
attr interpolationmode sample-hold
vector 586 scenario.client1.tcp.conn-55 rto:vector ETV
attr interpolationmode sample-hold
vector 587 scenario.client1.tcp.conn-55 cwnd:vector ETV
attr interpolationmode sample-hold
vector 588 scenario.client1.tcp.conn-55 ssthresh:vector ETV
attr interpolationmode sample-hold
vector 589 scenario.client1.tcp.conn-55 dupAcks:vector ETV
attr interpolationmode sample-hold
vector 590 scenario.client2.tcp.conn-57 tcpRcvQueueBytes:vector ETV
attr interpolationmode sample-hold
vector 591 scenario.client2.tcp.conn-57 rcvAdv:vector ETV
attr interpolationmode sample-hold
vector 592 scenario.client2.tcp.conn-57 rcvWnd:vector ETV
attr interpolationmode sample-hold
vector 593 scenario.client2.tcp.conn-57 sndAck:vector ETV
attr interpolationmode sample-hold
vector 594 scenario.client0.tcp.conn-58 rcvAdv:vector ETV
attr interpolationmode sample-hold
vector 595 scenario.client0.tcp.conn-58 sndWnd:vector ETV
attr interpolationmode sample-hold
vector 596 scenario.client0.tcp.conn-58 tcpRcvQueueBytes:vector ETV
attr interpolationmode sample-hold
vector 597 scenario.client0.tcp.conn-58 rcvWnd:vector ETV
attr interpolationmode sample-hold
vector 598 scenario.client0.tcp.conn-58 sndAck:vector ETV
attr interpolationmode sample-hold
vector 599 scenario.client2.tcp.conn-57 rcvSeq:vector ETV
attr interpolationmode sample-hold
vector 600 scenario.client2.tcp.conn-57 rcvAck:vector ETV
attr interpolationmode sample-hold
vector 601 scenario.client2.tcp.conn-57 sndWnd:vector ETV
attr interpolationmode sample-hold
vector 602 scenario.client2.tcp.conn-57 unacked:vector ETV
attr interpolationmode sample-hold
vector 603 scenario.client0.tcp.conn-58 rcvSeq:vector ETV
attr interpolationmode sample-hold
vector 604 scenario.client0.tcp.conn-58 rcvAck:vector ETV
attr interpolationmode sample-hold
vector 605 scenario.client0.tcp.conn-58 unacked:vector ETV
attr interpolationmode sample-hold
vector 606 scenario.client0.tcp.conn-58 cwnd:vector ETV
attr interpolationmode sample-hold
vector 607 scenario.client0.tcp.conn-58 ssthresh:vector ETV
attr interpolationmode sample-hold
vector 608 scenario.client0.tcp.conn-58 dupAcks:vector ETV
attr interpolationmode sample-hold
vector 609 scenario.client2.tcp.conn-57 rtt:vector ETV
attr interpolationmode sample-hold
vector 610 scenario.client2.tcp.conn-57 srtt:vector ETV
attr interpolationmode sample-hold
vector 611 scenario.client2.tcp.conn-57 rttvar:vector ETV
attr interpolationmode sample-hold
vector 612 scenario.client2.tcp.conn-57 rto:vector ETV
attr interpolationmode sample-hold
vector 613 scenario.client2.tcp.conn-57 cwnd:vector ETV
attr interpolationmode sample-hold
vector 614 scenario.client2.tcp.conn-57 ssthresh:vector ETV
attr interpolationmode sample-hold
vector 615 scenario.client2.tcp.conn-57 dupAcks:vector ETV
attr interpolationmode sample-hold
vector 616 scenario.client3.tcp.conn-59 tcpRcvQueueBytes:vector ETV
attr interpolationmode sample-hold
vector 617 scenario.client3.tcp.conn-59 rcvAdv:vector ETV
attr interpolationmode sample-hold
vector 618 scenario.client3.tcp.conn-59 rcvWnd:vector ETV
attr interpolationmode sample-hold
vector 619 scenario.client3.tcp.conn-59 sndAck:vector ETV
attr interpolationmode sample-hold
vector 620 scenario.client0.tcp.conn-60 rcvAdv:vector ETV
attr interpolationmode sample-hold
vector 621 scenario.client0.tcp.conn-60 sndWnd:vector ETV
attr interpolationmode sample-hold
vector 622 scenario.client0.tcp.conn-60 tcpRcvQueueBytes:vector ETV
attr interpolationmode sample-hold
vector 623 scenario.client0.tcp.conn-60 rcvWnd:vector ETV
attr interpolationmode sample-hold
vector 624 scenario.client0.tcp.conn-60 sndAck:vector ETV
attr interpolationmode sample-hold
vector 625 scenario.client3.tcp.conn-59 rcvSeq:vector ETV
attr interpolationmode sample-hold
vector 626 scenario.client3.tcp.conn-59 rcvAck:vector ETV
attr interpolationmode sample-hold
vector 627 scenario.client3.tcp.conn-59 sndWnd:vector ETV
attr interpolationmode sample-hold
vector 628 scenario.client3.tcp.conn-59 unacked:vector ETV
attr interpolationmode sample-hold
vector 629 scenario.client0.tcp.conn-60 rcvSeq:vector ETV
attr interpolationmode sample-hold
vector 630 scenario.client0.tcp.conn-60 rcvAck:vector ETV
attr interpolationmode sample-hold
vector 631 scenario.client0.tcp.conn-60 unacked:vector ETV
attr interpolationmode sample-hold
vector 632 scenario.client0.tcp.conn-60 cwnd:vector ETV
attr interpolationmode sample-hold
vector 633 scenario.client0.tcp.conn-60 ssthresh:vector ETV
attr interpolationmode sample-hold
vector 634 scenario.client0.tcp.conn-60 dupAcks:vector ETV
attr interpolationmode sample-hold
vector 635 scenario.client3.tcp.conn-59 rtt:vector ETV
attr interpolationmode sample-hold
vector 636 scenario.client3.tcp.conn-59 srtt:vector ETV
attr interpolationmode sample-hold
vector 637 scenario.client3.tcp.conn-59 rttvar:vector ETV
attr interpolationmode sample-hold
vector 638 scenario.client3.tcp.conn-59 rto:vector ETV
attr interpolationmode sample-hold
vector 639 scenario.client3.tcp.conn-59 cwnd:vector ETV
attr interpolationmode sample-hold
vector 640 scenario.client3.tcp.conn-59 ssthresh:vector ETV
attr interpolationmode sample-hold
vector 641 scenario.client3.tcp.conn-59 dupAcks:vector ETV
attr interpolationmode sample-hold
vector 642 scenario.client2.tcp.conn-61 tcpRcvQueueBytes:vector ETV
attr interpolationmode sample-hold
vector 643 scenario.client2.tcp.conn-61 rcvAdv:vector ETV
attr interpolationmode sample-hold
vector 644 scenario.client2.tcp.conn-61 rcvWnd:vector ETV
attr interpolationmode sample-hold
vector 645 scenario.client2.tcp.conn-61 sndAck:vector ETV
attr interpolationmode sample-hold
vector 646 scenario.client2.ppp[1].ppp rcvdPkFromHl:vector(packetBytes) ETV
attr interpolationmode none
attr source packetReceivedFromUpper
attr title "packets received from higher layer, vector(packetBytes)"
vector 647 scenario.client2.ppp[1].ppp.queue packetPushed:vector(packetBytes) ETV
attr interpolationmode none
attr title "packet pushed, vector(packetBytes)"
vector 648 scenario.client2.ppp[1].ppp.queue queueLength:vector ETV
attr interpolationmode sample-hold
attr source "count(packetPushed) - count(packetPopped) - count(packetRemoved) - count(packetDropped)"
attr title "queue length, vector"
vector 649 scenario.client2.ppp[1].ppp.queue packetPopped:vector(packetBytes) ETV
attr interpolationmode none
attr title "packet popped, vector(packetBytes)"
vector 650 scenario.client2.ppp[1].ppp.queue queueingTime:vector ETV
attr interpolationmode none
attr source queueingTime(packetPopped)
attr title "queueing times, vector"
attr unit s
vector 651 scenario.client2.ppp[1].ppp txPk:vector(packetBytes) ETV
attr interpolationmode none
attr source packetSentToLower
attr title "packets transmitted, vector(packetBytes)"
vector 652 scenario.client1.ppp[1].ppp rxPkOk:vector(packetBytes) ETV
attr interpolationmode none
attr source rxPkOk
attr title "packets received OK, vector(packetBytes)"
vector 653 scenario.client1.ppp[1].ppp passedUpPk:vector(packetBytes) ETV
attr interpolationmode none
attr source packetSentToUpper
attr title "packets passed to higher layer, vector(packetBytes)"
vector 654 scenario.client1.tcp.conn-62 rcvAdv:vector ETV
attr interpolationmode sample-hold
vector 655 scenario.client1.tcp.conn-62 sndWnd:vector ETV
attr interpolationmode sample-hold
vector 656 scenario.client1.tcp.conn-62 tcpRcvQueueBytes:vector ETV
attr interpolationmode sample-hold
vector 657 scenario.client1.tcp.conn-62 rcvWnd:vector ETV
attr interpolationmode sample-hold
vector 658 scenario.client1.tcp.conn-62 sndAck:vector ETV
attr interpolationmode sample-hold
vector 659 scenario.client1.ppp[1].ppp rcvdPkFromHl:vector(packetBytes) ETV
attr interpolationmode none
attr source packetReceivedFromUpper
attr title "packets received from higher layer, vector(packetBytes)"
vector 660 scenario.client1.ppp[1].ppp.queue packetPushed:vector(packetBytes) ETV
attr interpolationmode none
attr title "packet pushed, vector(packetBytes)"
vector 661 scenario.client1.ppp[1].ppp.queue queueLength:vector ETV
attr interpolationmode sample-hold
attr source "count(packetPushed) - count(packetPopped) - count(packetRemoved) - count(packetDropped)"
attr title "queue length, vector"
vector 662 scenario.client1.ppp[1].ppp.queue packetPopped:vector(packetBytes) ETV
attr interpolationmode none
attr title "packet popped, vector(packetBytes)"
[...]
474	265943 499 476 2892 3.212805566576 7.126749743216 18 40 44 737 30203
475	266442 499 476 2892 3.212805566576 7.126749743216 18 40 44 737 30203
476	266941 962 476 2892 3.212805566576 7.126749743216 36 0 1 18 18
477	267903 499 476 2892 3.212805566576 7.126749743216 18 40 44 737 30203
478	268402 481 476 2892 3.212805566576 7.126749743216 18 0 0 0 0
479	268883 499 476 2892 3.212805566576 7.126749743216 18 47 51 863 41403
480	269382 499 478 2894 3.213713566576 7.127633743216 18 47 51 863 41403
481	269881 499 478 2894 3.213713566576 7.127633743216 18 40 44 737 30203
482	270380 317 480 2896 3.213713566576 7.127633743216 10 810706 810715 8107102 6572510283944
483	270697 58 480 493 3.213713566576 3.215505566576 2 7504 7504 15008 112620032
484	270755 456 480 2896 3.213713566576 7.127633743216 17 0 1 1 1
485	271211 268 480 2896 3.213713566576 7.127633743216 9 7503 7504 67535 506775137
486	271479 286 480 2896 3.213713566576 7.127633743216 9 803202 803211 7228861 5806270150889
487	271765 499 482 2899 3.213713566576 7.127633743216 18 40 44 737 30203
488	272264 499 482 2899 3.213713566576 7.127633743216 18 40 44 737 30203
489	272763 962 482 2899 3.213713566576 7.127633743216 36 0 1 18 18
490	273725 499 482 2899 3.213713566576 7.127633743216 18 40 44 737 30203
491	274224 481 482 2899 3.213713566576 7.127633743216 18 0 0 0 0
492	274705 499 482 2899 3.213713566576 7.127633743216 18 47 51 863 41403
493	275204 499 484 2901 3.214621566576 7.128509743216 18 47 51 863 41403
494	275703 499 484 2901 3.214621566576 7.128509743216 18 40 44 737 30203
495	276202 286 486 2903 3.214621566576 7.128509743216 9 803428 803429 7230860 5809481815512
496	276488 286 486 2903 3.214621566576 7.128509743216 9 803202 803211 7228861 5806270150889
497	276774 268 486 2903 3.214621566576 7.128509743216 9 7503 7504 67535 506775137
498	277042 430 486 2903 3.214621566576 7.128509743216 16 0 2 9 11
499	277472 255 493 2896 3.215505566576 7.127633743216 8 803202 803210 6425650 5161122240368
500	277727 255 493 2896 3.215505566576 7.127633743216 8 803429 803429 6427432 5163985264328
501	277982 26 493 493 3.215505566576 3.215505566576 1 0 0 0 0
502	278008 29 493 493 3.215505566576 3.215505566576 1 1072 1072 1072 1149184
503	278037 35 493 493 3.215505566576 3.215505566576 1 4294967295 4294967295 4294967295 1.844674406512e+019
504	278072 215 493 2896 3.215505566576 7.127633743216 8 0 0 0 0
505	278287 264 503 2903 3.216381566576 7.128509743216 8 0.00176 0.001768 0.014088 2.4809024e-005
506	278551 305 503 2903 3.216381566576 7.128509743216 8 0.00022 0.001155697104 0.005998120279 5.2469878068017e-006
507	278856 306 503 2903 3.216381566576 7.128509743216 8 0.258397895759 0.65647 3.45046030652 1.6240295664303
508	279162 303 503 2903 3.216381566576 7.128509743216 8 1.03474728014 2.6261 13.807839346359 26.002621612305
509	279465 239 503 2903 3.216381566576 7.128509743216 8 1072 4824 23584 81592064
510	279704 287 503 2903 3.216381566576 7.128509743216 8 4294967295 4294967295 34359738360 1.4757395252096e+020
511	279991 215 503 2903 3.216381566576 7.128509743216 8 0 0 0 0
512	280206 241 505 2845 3.226203192236 6.790070583452 9 0 0 0 0
513	280447 315 505 2845 3.226203192236 6.790070583452 10 7504 814282 7336042 5967552889732
514	280762 268 505 2845 3.226203192236 6.790070583452 9 7504 7504 67536 506790144
515	281030 281 505 2845 3.226203192236 6.790070583452 9 0 806778 6454224 5207125930272
516	281311 317 512 2851 3.227111192236 6.790954583452 10 814055 814064 8140592 6626923811150
517	281628 58 512 525 3.227111192236 3.228903192236 2 7504 7504 15008 112620032
518	281686 456 512 2851 3.227111192236 6.790954583452 17 0 1 1 1
519	282142 268 512 2851 3.227111192236 6.790954583452 9 7503 7504 67535 506775137
520	282410 286 512 2851 3.227111192236 6.790954583452 9 806551 806560 7259002 5854790004076
521	282696 286 518 2858 3.228019192236 6.791830583452 9 806777 806778 7261001 5858015058001
522	282982 286 518 2858 3.228019192236 6.791830583452 9 806551 806560 7259002 5854790004076
523	283268 268 518 2858 3.228019192236 6.791830583452 9 7503 7504 67535 506775137
524	283536 430 518 2858 3.228019192236 6.791830583452 16 0 2 9 11
525	283966 255 525 2851 3.228903192236 6.790954583452 8 806551 806559 6452442 5204250970476
526	284221 255 525 2851 3.228903192236 6.790954583452 8 806778 806778 6454224 5207125930272
527	284476 26 525 525 3.228903192236 3.228903192236 1 0 0 0 0
528	284502 29 525 525 3.228903192236 3.228903192236 1 1072 1072 1072 1149184
529	284531 35 525 525 3.228903192236 3.228903192236 1 4294967295 4294967295 4294967295 1.844674406512e+019
530	284566 215 525 2851 3.228903192236 6.790954583452 8 0 0 0 0
531	284781 264 535 2858 3.229779192236 6.791830583452 8 0.00176 0.002144 0.014464 2.6279936e-005
532	285045 305 535 2858 3.229779192236 6.791830583452 8 0.00022 0.001176790484 0.006226466619 5.6019813159163e-006
533	285350 307 535 2858 3.229779192236 6.791830583452 8 0.258400909099 0.65647 3.450607960178 1.6241691263922
534	285657 303 535 2858 3.229779192236 6.791830583452 8 1.03478042688 2.6261 13.808658307331 26.005635928692
535	285960 239 535 2858 3.229779192236 6.791830583452 8 1072 4824 23584 81592064
536	286199 287 535 2858 3.229779192236 6.791830583452 8 4294967295 4294967295 34359738360 1.4757395252096e+020
537	286486 215 535 2858 3.229779192236 6.791830583452 8 0 0 0 0
538	286701 240 537 2860 3.287942136906 6.911198547563 9 0 0 0 0
539	286941 314 537 2860 3.287942136906 6.911198547563 10 7504 829717 7474957 6195929010817
540	287255 267 537 2860 3.287942136906 6.911198547563 9 7504 7504 67536 506790144
541	287522 280 537 2860 3.287942136906 6.911198547563 9 0 822213 6577704 5408273738952
542	287802 316 544 2866 3.288850136906 6.912082547563 10 829490 829499 8294941 6880604619455
543	288118 58 544 557 3.288850136906 3.290642136906 2 7504 7504 15008 112620032
544	288176 454 544 2866 3.288850136906 6.912082547563 17 0 1 1 1
545	288630 267 544 2866 3.288850136906 6.912082547563 9 7503 7504 67535 506775137
546	288897 285 544 2866 3.288850136906 6.912082547563 9 821986 821995 7397916 6081017904864
547	289182 285 550 2873 3.289758136906 6.912958547563 9 822212 822213 7399916 6084306311896
548	289467 285 550 2873 3.289758136906 6.912958547563 9 821986 821995 7397916 6081017904864
549	289752 267 550 2873 3.289758136906 6.912958547563 9 7503 7504 67535 506775137
550	290019 428 550 2873 3.289758136906 6.912958547563 16 0 2 9 11
551	290447 254 557 2866 3.290642136906 6.912082547563 8 821986 821994 6575921 5405342124839
552	290701 254 557 2866 3.290642136906 6.912082547563 8 822213 822213 6577704 5408273738952
553	290955 26 557 557 3.290642136906 3.290642136906 1 0 0 0 0
554	290981 29 557 557 3.290642136906 3.290642136906 1 1072 1072 1072 1149184
555	291010 35 557 557 3.290642136906 3.290642136906 1 4294967295 4294967295 4294967295 1.844674406512e+019
556	291045 214 557 2866 3.290642136906 6.912082547563 8 0 0 0 0
557	291259 263 567 2873 3.291518136906 6.912958547563 8 0.00176 0.001768 0.014088 2.4809024e-005
558	291522 304 567 2873 3.291518136906 6.912958547563 8 0.00022 0.001155761218 0.005997671484 5.2470984957899e-006
559	291826 303 567 2873 3.291518136906 6.912958547563 8 0.25839797819 0.65647 3.450460242404 1.6240291671399
560	292129 303 567 2873 3.291518136906 6.912958547563 8 1.034747673978 2.6261 13.8078386411 26.002612344479
561	292432 238 567 2873 3.291518136906 6.912958547563 8 1072 4824 23584 81592064
562	292670 286 567 2873 3.291518136906 6.912958547563 8 4294967295 4294967295 34359738360 1.4757395252096e+020
563	292956 214 567 2873 3.291518136906 6.912958547563 8 0 0 0 0
564	293170 321 569 2719 3.326827933592 5.816958427076 12 0 0 0 0
565	293491 410 569 2719 3.326827933592 5.816958427076 13 7504 839438 10080760 8455930180144
566	293901 357 569 2719 3.326827933592 5.816958427076 12 7504 7504 90048 675720192
567	294258 376 569 2719 3.326827933592 5.816958427076 12 0 831934 9151274 7613255983916
568	294634 412 576 2725 3.327735933592 5.817842427076 13 839211 839223 10909815 9155697179781
569	295046 58 576 589 3.327735933592 3.329527933592 2 7504 7504 15008 112620032
570	295104 616 576 2725 3.327735933592 5.817842427076 23 0 1 1 1
571	295720 357 576 2725 3.327735933592 5.817842427076 12 7503 7504 90047 675705185
572	296077 381 576 2725 3.327735933592 5.817842427076 12 831707 831719 9980557 8300959836035
573	296458 381 582 2732 3.328643933592 5.818718427076 12 831933 831934 9983207 8305368500405
574	296839 381 582 2732 3.328643933592 5.818718427076 12 831707 831719 9980557 8300959836035
575	297220 357 582 2732 3.328643933592 5.818718427076 12 7503 7504 90047 675705185
576	297577 590 582 2732 3.328643933592 5.818718427076 22 0 2 12 14
577	298167 350 589 2725 3.329527933592 5.817842427076 11 831707 831718 9148838 7609203341074
578	298517 350 589 2725 3.329527933592 5.817842427076 11 831934 831934 9151274 7613255983916
579	298867 26 589 589 3.329527933592 3.329527933592 1 0 0 0 0
580	298893 29 589 589 3.329527933592 3.329527933592 1 1072 1072 1072 1149184
581	298922 35 589 589 3.329527933592 3.329527933592 1 4294967295 4294967295 4294967295 1.844674406512e+019
582	298957 295 589 2725 3.329527933592 5.817842427076 11 0 0 0 0
583	299252 362 599 2732 3.330403933592 5.818718427076 11 0.00176 0.001768 0.019368 3.4101824e-005
584	299614 423 599 2732 3.330403933592 5.818718427076 11 0.00022 0.001355312409 0.00988081315 1.0283001318004e-005
585	300037 424 599 2732 3.330403933592 5.818718427076 11 0.173280053866 0.65647 4.04788212221 1.7444004644598
586	300461 384 599 2732 3.330403933592 5.818718427076 11 1 2.6261 16.807835950953 29.0025949014
587	300845 328 599 2732 3.330403933592 5.818718427076 11 1072 6432 41272 186455104
588	301173 394 599 2732 3.330403933592 5.818718427076 11 4294967295 4294967295 47244640245 2.0291418471632e+020
589	301567 295 599 2732 3.330403933592 5.818718427076 11 0 0 0 0
590	301862 264 601 2785 3.35004730369 6.182661726127 10 0 0 0 0
591	302126 342 601 2785 3.35004730369 6.182661726127 11 7504 845243 8459934 7144413600506
592	302468 294 601 2785 3.35004730369 6.182661726127 10 7504 7504 75040 563100160
593	302762 309 601 2785 3.35004730369 6.182661726127 10 0 837739 7539651 6316259689089
594	303071 344 612 2791 3.35095530369 6.183545726127 11 845016 845026 9295226 7854656944784
595	303415 56 612 636 3.35095530369 3.35274730369 2 7504 7504 15008 112620032
596	303471 503 612 2791 3.35095530369 6.183545726127 19 0 1 1 1
597	303974 294 612 2791 3.35095530369 6.183545726127 10 7503 7504 75039 563085153
598	304268 314 612 2791 3.35095530369 6.183545726127 10 837512 837522 8375171 7014348928033
599	304582 314 625 2798 3.35186330369 6.184421726127 10 837738 837739 8377389 7018064645733
600	304896 314 625 2798 3.35186330369 6.184421726127 10 837512 837522 8375171 7014348928033
601	305210 294 625 2798 3.35186330369 6.184421726127 10 7503 7504 75039 563085153
602	305504 478 625 2798 3.35186330369 6.184421726127 18 0 2 10 12
603	305982 284 636 2791 3.35274730369 6.183545726127 9 837512 837521 7537649 6312905827549
604	306266 284 636 2791 3.35274730369 6.183545726127 9 837739 837739 7539651 6316259689089
605	306550 25 636 636 3.35274730369 3.35274730369 1 0 0 0 0
606	306575 28 636 636 3.35274730369 3.35274730369 1 1072 1072 1072 1149184
607	306603 34 636 636 3.35274730369 3.35274730369 1 4294967295 4294967295 4294967295 1.844674406512e+019
608	306637 239 636 2791 3.35274730369 6.183545726127 9 0 0 0 0
609	306876 294 646 2798 3.35362330369 6.184421726127 9 0.00176 0.001768 0.015848 2.7906624e-005
610	307170 341 646 2798 3.35362330369 6.184421726127 9 0.00022 0.00123135518 0.007228513755 6.7630755428892e-006
611	307511 344 646 2798 3.35362330369 6.184421726127 9 0.226173843196 0.65647 3.676633939056 1.6751833877039
612	307855 327 646 2798 3.35362330369 6.184421726127 9 1 2.6261 14.807837542015 27.002603518551
613	308182 266 646 2798 3.35362330369 6.184421726127 9 1072 5360 28944 110321664
614	308448 320 646 2798 3.35362330369 6.184421726127 9 4294967295 4294967295 38654705655 1.6602069658608e+020
615	308768 239 646 2798 3.35362330369 6.184421726127 9 0 0 0 0
616	309007 266 663 2875 3.531668169194 6.958776903836 10 0 0 0 0
617	309273 345 663 2875 3.531668169194 6.958776903836 11 7504 890649 8913994 7932612722026
618	309618 296 663 2875 3.531668169194 6.958776903836 10 7504 7504 75040 563100160
619	309914 311 663 2875 3.531668169194 6.958776903836 10 0 883145 7948305 7019505819225
620	310225 347 670 2881 3.532576169194 6.959660903836 11 890422 890432 9794692 8721453761492
621	310572 58 670 688 3.532576169194 3.534368169194 2 7504 7504 15008 112620032
622	310630 506 670 2881 3.532576169194 6.959660903836 19 0 1 1 1
623	311136 296 670 2881 3.532576169194 6.959660903836 10 7503 7504 75039 563085153
624	311432 316 670 2881 3.532576169194 6.959660903836 10 882918 882928 8829231 7795532005245
625	311748 316 676 2888 3.533484169194 6.960536903836 10 883144 883145 8831449 7799449143961
626	312064 316 676 2888 3.533484169194 6.960536903836 10 882918 882928 8829231 7795532005245
627	312380 296 676 2888 3.533484169194 6.960536903836 10 7503 7504 75039 563085153
628	312676 480 676 2888 3.533484169194 6.960536903836 18 0 2 10 12
629	313156 285 688 2881 3.534368169194 6.959660903836 9 882918 882927 7946303 7015970152061
630	313441 285 688 2881 3.534368169194 6.959660903836 9 883145 883145 7948305 7019505819225
631	313726 26 688 688 3.534368169194 3.534368169194 1 0 0 0 0
632	313752 29 688 688 3.534368169194 3.534368169194 1 1072 1072 1072 1149184
633	313781 35 688 688 3.534368169194 3.534368169194 1 4294967295 4294967295 4294967295 1.844674406512e+019
634	313816 240 688 2881 3.534368169194 6.959660903836 9 0 0 0 0
635	314056 295 705 2888 3.535244169194 6.960536903836 9 0.00176 0.001768 0.015848 2.7906624e-005
636	314351 342 705 2888 3.535244169194 6.960536903836 9 0.00022 0.00123135518 0.007228513755 6.7630755428892e-006
637	314693 345 705 2888 3.535244169194 6.960536903836 9 0.226173843196 0.65647 3.676633939056 1.6751833877039
638	315038 328 705 2888 3.535244169194 6.960536903836 9 1 2.6261 14.807837542015 27.002603518551
639	315366 267 705 2888 3.535244169194 6.960536903836 9 1072 4824 24656 82741248
640	315633 321 705 2888 3.535244169194 6.960536903836 9 4294967295 4294967295 38654705655 1.6602069658608e+020
641	315954 240 705 2888 3.535244169194 6.960536903836 9 0 0 0 0
642	316194 240 785 2734 3.722767786371 5.860529080721 9 0 0 0 0
643	316434 314 785 2734 3.722767786371 5.860529080721 10 7504 938423 8453311 7925795852377
644	316748 267 785 2734 3.722767786371 5.860529080721 9 7504 7504 67536 506790144
645	317015 280 785 2734 3.722767786371 5.860529080721 9 0 930919 7447352 6932881476488
646	317295 526 788 2824 3.722767786371 6.444142241767 19 40 44 777 31803
647	317821 526 788 2824 3.722767786371 6.444142241767 19 40 44 777 31803
648	318347 1014 788 2824 3.722767786371 6.444142241767 38 0 1 19 19
649	319361 526 788 2824 3.722767786371 6.444142241767 19 40 44 777 31803
650	319887 507 788 2824 3.722767786371 6.444142241767 19 0 0 0 0
651	320394 526 788 2824 3.722767786371 6.444142241767 19 47 51 910 43612
652	320920 526 790 2826 3.723675786371 6.445018241767 19 47 51 910 43612
653	321446 526 790 2826 3.723675786371 6.445018241767 19 40 44 777 31803
654	321972 316 792 2740 3.723675786371 5.861413080721 10 938196 938205 9382001 8802194276507
655	322288 58 792 805 3.723675786371 3.725467786371 2 7504 7504 15008 112620032
656	322346 454 792 2740 3.723675786371 5.861413080721 17 0 1 1 1
657	322800 267 792 2740 3.723675786371 5.861413080721 9 7503 7504 67535 506775137
658	323067 285 792 2740 3.723675786371 5.861413080721 9 930692 930701 8376270 7795766568180
659	323352 526 794 2817 3.723675786371 6.443258241767 19 40 44 778 31884
660	323878 526 794 2817 3.723675786371 6.443258241767 19 40 44 778 31884
661	324404 1014 794 2817 3.723675786371 6.443258241767 38 0 1 19 19
662	325418 526 794 2817 3.723675786371 6.443258241767 19 40 44 778 31884
663	325944 514 794 2817 3.723675786371 6.443258241767 19 0 0.000376 0.000376 1.41376e-007
664	326458 526 794 2817 3.723675786371 6.443258241767 19 47 51 911 43707
665	326984 526 796 2819 3.724583786371 6.444142241767 19 47 51 911 43707
666	327510 526 796 2819 3.724583786371 6.444142241767 19 40 44 778 31884
667	328036 285 798 2747 3.724583786371 5.862289080721 9 930918 930919 8378270 7799489799212
668	328321 285 798 2747 3.724583786371 5.862289080721 9 930692 930701 8376270 7795766568180
669	328606 267 798 2747 3.724583786371 5.862289080721 9 7503 7504 67535 506775137
670	328873 428 798 2747 3.724583786371 5.862289080721 16 0 2 9 11
671	329301 254 805 2740 3.725467786371 5.861413080721 8 930692 930700 7445569 6929562216779
672	329555 254 805 2740 3.725467786371 5.861413080721 8 930919 930919 7447352 6932881476488
673	329809 26 805 805 3.725467786371 3.725467786371 1 0 0 0 0
674	329835 29 805 805 3.725467786371 3.725467786371 1 1072 1072 1072 1149184
675	329864 35 805 805 3.725467786371 3.725467786371 1 4294967295 4294967295 4294967295 1.844674406512e+019
676	329899 214 805 2740 3.725467786371 5.861413080721 8 0 0 0 0
677	330113 263 815 2747 3.726343786371 5.862289080721 8 0.00176 0.001768 0.014088 2.4809024e-005
678	330376 304 815 2747 3.726343786371 5.862289080721 8 0.00022 0.001155761218 0.005997671484 5.2470984957899e-006
679	330680 303 815 2747 3.726343786371 5.862289080721 8 0.25839797819 0.65647 3.450460242404 1.6240291671399
680	330983 303 815 2747 3.726343786371 5.862289080721 8 1.034747673978 2.6261 13.8078386411 26.002612344479
681	331286 238 815 2747 3.726343786371 5.862289080721 8 1072 4824 23584 81592064
682	331524 286 815 2747 3.726343786371 5.862289080721 8 4294967295 4294967295 34359738360 1.4757395252096e+020
683	331810 214 815 2747 3.726343786371 5.862289080721 8 0 0 0 0
684	332024 267 877 2815 3.848475600452 6.443258241767 10 0 0 0 0
685	332291 346 877 2815 3.848475600452 6.443258241767 11 7504 969850 9706004 9406146535016
686	332637 297 877 2815 3.848475600452 6.443258241767 10 7504 7504 75040 563100160
687	332934 312 877 2815 3.848475600452 6.443258241767 10 0 962346 8661114 8334988413444
688	333246 348 884 2821 3.849383600452 6.444142241767 11 969623 969633 10665904 10341955285340
689	333594 58 884 909 3.849383600452 3.851175600452 2 7504 7504 15008 112620032
690	333652 508 884 2821 3.849383600452 6.444142241767 19 0 1 1 1
691	334160 297 884 2821 3.849383600452 6.444142241767 10 7503 7504 75039 563085153
692	334457 317 884 2821 3.849383600452 6.444142241767 10 962119 962129 9621242 9256829762362
693	334774 317 895 2828 3.850291600452 6.445018241767 10 962345 962346 9623459 9261096312469
694	335091 317 895 2828 3.850291600452 6.445018241767 10 962119 962129 9621242 9256829762362
695	335408 297 895 2828 3.850291600452 6.445018241767 10 7503 7504 75039 563085153
696	335705 482 895 2828 3.850291600452 6.445018241767 18 0 2 10 12
697	336187 286 909 2821 3.851175600452 6.444142241767 9 962119 962128 8659113 8331137549721
698	336473 286 909 2821 3.851175600452 6.444142241767 9 962346 962346 8661114 8334988413444
699	336759 26 909 909 3.851175600452 3.851175600452 1 0 0 0 0
700	336785 29 909 909 3.851175600452 3.851175600452 1 1072 1072 1072 1149184
701	336814 35 909 909 3.851175600452 3.851175600452 1 4294967295 4294967295 4294967295 1.844674406512e+019
702	336849 241 909 2821 3.851175600452 6.444142241767 9 0 0 0 0
703	337090 296 922 2828 3.852051600452 6.445018241767 9 0.00176 0.002144 0.016224 2.9377536e-005
704	337386 343 922 2828 3.852051600452 6.445018241767 9 0.00022 0.001252384446 0.00745730889 7.1753067507561e-006
705	337729 346 922 2828 3.852051600452 6.445018241767 9 0.226176774105 0.65647 3.67678165683 1.6753058936612
706	338075 330 922 2828 3.852051600452 6.445018241767 9 1 2.6261 14.808624455344 27.005191073024
707	338405 268 922 2828 3.852051600452 6.445018241767 9 1072 5360 28944 110321664
708	338673 322 922 2828 3.852051600452 6.445018241767 9 4294967295 4294967295 38654705655 1.6602069658608e+020
709	338995 241 922 2828 3.852051600452 6.445018241767 9 0 0 0 0

