version 2
run BROADCAST3-0-20220103-13:17:39-5380
attr configname BROADCAST3
attr datetime 20220103-13:17:39
attr experiment BROADCAST3
attr inifile omnetpp.ini
attr iterationvars ""
attr iterationvarsf ""
attr measurement ""
attr network scenario
attr processid 5380
attr repetition 0
attr replication #0
attr resultdir results
attr runnumber 0
attr seedset 0
param **.client0.app[0].broadcast 1.0
param **.client1.app[0].broadcast 1.4
param **.client2.app[0].broadcast 1.8
param **.client3.app[0].join 1.3
param **.ppp[*].ppp.queue.typename "\"DropTailQueue\""
param **.tcp.typename "\"Tcp\""
param **.tcp.nagleEnabled false
param **.cli*.app[*].nPar 5
param **.cli*.app[*].fPar 0
param **.numApps 1
param **.client0.app[*].typename "\"Node\""
param **.client0.app[0].localPort 1000
param **.client0.app[0].localPortL 1234
param **.client0.app[0].connectAddress "\"\""
param **.client0.app[0].connectPort 1234
param **.client1.app[*].typename "\"Node\""
param **.client1.app[0].localPort 1001
param **.client1.app[0].localPortL 1234
param **.client1.app[0].connectAddress "\"\""
param **.client1.app[0].connectPort 1234
param **.client2.app[*].typename "\"Node\""
param **.client2.app[0].localPort 1002
param **.client2.app[0].localPortL 1234
param **.client2.app[0].connectAddress "\"\""
param **.client2.app[0].connectPort 1234
param **.client3.app[*].typename "\"Node\""
param **.client3.app[0].localPort 1003
param **.client3.app[0].localPortL 1234
param **.client3.app[0].connectAddress "\"\""
param **.client3.app[0].connectPort 1234
param **.client4.app[*].typename "\"Node\""
param **.client4.app[0].localPort 1004
param **.client4.app[0].localPortL 1234
param **.client4.app[0].connectAddress "\"\""
param **.client4.app[0].connectPort 1234

vector 0 scenario.client0.ppp[0].ppp transmissionState:vector ETV
attr interpolationmode sample-hold
attr source transmissionStateChanged
attr title "tx state, vector"
vector 1 scenario.client0.ppp[1].ppp transmissionState:vector ETV
attr interpolationmode sample-hold
attr source transmissionStateChanged
attr title "tx state, vector"
vector 2 scenario.client0.ppp[2].ppp transmissionState:vector ETV
attr interpolationmode sample-hold
attr source transmissionStateChanged
attr title "tx state, vector"
vector 3 scenario.client0.ppp[3].ppp transmissionState:vector ETV
attr interpolationmode sample-hold
attr source transmissionStateChanged
attr title "tx state, vector"
vector 4 scenario.client1.ppp[0].ppp transmissionState:vector ETV
attr interpolationmode sample-hold
attr source transmissionStateChanged
attr title "tx state, vector"
vector 5 scenario.client1.ppp[1].ppp transmissionState:vector ETV
attr interpolationmode sample-hold
attr source transmissionStateChanged
attr title "tx state, vector"
vector 6 scenario.client1.ppp[2].ppp transmissionState:vector ETV
attr interpolationmode sample-hold
attr source transmissionStateChanged
attr title "tx state, vector"
vector 7 scenario.client1.ppp[3].ppp transmissionState:vector ETV
attr interpolationmode sample-hold
attr source transmissionStateChanged
attr title "tx state, vector"
vector 8 scenario.client2.ppp[0].ppp transmissionState:vector ETV
attr interpolationmode sample-hold
attr source transmissionStateChanged
attr title "tx state, vector"
vector 9 scenario.client2.ppp[1].ppp transmissionState:vector ETV
attr interpolationmode sample-hold
attr source transmissionStateChanged
attr title "tx state, vector"
vector 10 scenario.client2.ppp[2].ppp transmissionState:vector ETV
attr interpolationmode sample-hold
attr source transmissionStateChanged
attr title "tx state, vector"
vector 11 scenario.client2.ppp[3].ppp transmissionState:vector ETV
attr interpolationmode sample-hold
attr source transmissionStateChanged
attr title "tx state, vector"
vector 12 scenario.client3.ppp[0].ppp transmissionState:vector ETV
attr interpolationmode sample-hold
attr source transmissionStateChanged
attr title "tx state, vector"
vector 13 scenario.client3.ppp[1].ppp transmissionState:vector ETV
attr interpolationmode sample-hold
attr source transmissionStateChanged
attr title "tx state, vector"
vector 14 scenario.client3.ppp[2].ppp transmissionState:vector ETV
attr interpolationmode sample-hold
attr source transmissionStateChanged
attr title "tx state, vector"
vector 15 scenario.client3.ppp[3].ppp transmissionState:vector ETV
attr interpolationmode sample-hold
attr source transmissionStateChanged
attr title "tx state, vector"
vector 16 scenario.client4.ppp[0].ppp transmissionState:vector ETV
attr interpolationmode sample-hold
attr source transmissionStateChanged
attr title "tx state, vector"
vector 17 scenario.client4.ppp[1].ppp transmissionState:vector ETV
attr interpolationmode sample-hold
attr source transmissionStateChanged
attr title "tx state, vector"
vector 18 scenario.client4.ppp[2].ppp transmissionState:vector ETV
attr interpolationmode sample-hold
attr source transmissionStateChanged
attr title "tx state, vector"
vector 19 scenario.client4.ppp[3].ppp transmissionState:vector ETV
attr interpolationmode sample-hold
attr source transmissionStateChanged
attr title "tx state, vector"
vector 20 scenario.client0.tcp.conn-30 tcpRcvQueueBytes:vector ETV
attr interpolationmode sample-hold
vector 21 scenario.client0.tcp.conn-30 rcvAdv:vector ETV
attr interpolationmode sample-hold
vector 22 scenario.client0.tcp.conn-30 rcvWnd:vector ETV
attr interpolationmode sample-hold
vector 23 scenario.client0.tcp.conn-30 sndAck:vector ETV
attr interpolationmode sample-hold
vector 24 scenario.client0.ppp[1].ppp rcvdPkFromHl:vector(packetBytes) ETV
attr interpolationmode none
attr source packetReceivedFromUpper
attr title "packets received from higher layer, vector(packetBytes)"
vector 25 scenario.client0.ppp[1].ppp.queue packetPushed:vector(packetBytes) ETV
attr interpolationmode none
attr title "packet pushed, vector(packetBytes)"
vector 26 scenario.client0.ppp[1].ppp.queue queueLength:vector ETV
attr interpolationmode sample-hold
attr source "count(packetPushed) - count(packetPopped) - count(packetRemoved) - count(packetDropped)"
attr title "queue length, vector"
vector 27 scenario.client0.ppp[1].ppp.queue packetPopped:vector(packetBytes) ETV
attr interpolationmode none
attr title "packet popped, vector(packetBytes)"
vector 28 scenario.client0.ppp[1].ppp.queue queueingTime:vector ETV
attr interpolationmode none
attr source queueingTime(packetPopped)
attr title "queueing times, vector"
attr unit s
vector 29 scenario.client0.ppp[1].ppp txPk:vector(packetBytes) ETV
attr interpolationmode none
attr source packetSentToLower
attr title "packets transmitted, vector(packetBytes)"
vector 30 scenario.client2.ppp[0].ppp rxPkOk:vector(packetBytes) ETV
attr interpolationmode none
attr source rxPkOk
attr title "packets received OK, vector(packetBytes)"
vector 31 scenario.client2.ppp[0].ppp passedUpPk:vector(packetBytes) ETV
attr interpolationmode none
attr source packetSentToUpper
attr title "packets passed to higher layer, vector(packetBytes)"
vector 32 scenario.client2.tcp.conn-27 rcvSeq:vector ETV
attr interpolationmode sample-hold
vector 33 scenario.client2.tcp.conn-27 rcvAck:vector ETV
attr interpolationmode sample-hold
vector 34 scenario.client2.tcp.conn-31 rcvAdv:vector ETV
attr interpolationmode sample-hold
vector 35 scenario.client2.tcp.conn-31 sndWnd:vector ETV
attr interpolationmode sample-hold
vector 36 scenario.client2.tcp.conn-31 tcpRcvQueueBytes:vector ETV
attr interpolationmode sample-hold
vector 37 scenario.client2.tcp.conn-31 rcvWnd:vector ETV
attr interpolationmode sample-hold
vector 38 scenario.client2.tcp.conn-31 sndAck:vector ETV
attr interpolationmode sample-hold
vector 39 scenario.client2.ppp[0].ppp rcvdPkFromHl:vector(packetBytes) ETV
attr interpolationmode none
attr source packetReceivedFromUpper
attr title "packets received from higher layer, vector(packetBytes)"
vector 40 scenario.client2.ppp[0].ppp.queue packetPushed:vector(packetBytes) ETV
attr interpolationmode none
attr title "packet pushed, vector(packetBytes)"
vector 41 scenario.client2.ppp[0].ppp.queue queueLength:vector ETV
attr interpolationmode sample-hold
attr source "count(packetPushed) - count(packetPopped) - count(packetRemoved) - count(packetDropped)"
attr title "queue length, vector"
vector 42 scenario.client2.ppp[0].ppp.queue packetPopped:vector(packetBytes) ETV
attr interpolationmode none
attr title "packet popped, vector(packetBytes)"
vector 43 scenario.client2.ppp[0].ppp.queue queueingTime:vector ETV
attr interpolationmode none
attr source queueingTime(packetPopped)
attr title "queueing times, vector"
attr unit s
vector 44 scenario.client2.ppp[0].ppp txPk:vector(packetBytes) ETV
attr interpolationmode none
attr source packetSentToLower
attr title "packets transmitted, vector(packetBytes)"
vector 45 scenario.client0.ppp[1].ppp rxPkOk:vector(packetBytes) ETV
attr interpolationmode none
attr source rxPkOk
attr title "packets received OK, vector(packetBytes)"
vector 46 scenario.client0.ppp[1].ppp passedUpPk:vector(packetBytes) ETV
attr interpolationmode none
attr source packetSentToUpper
attr title "packets passed to higher layer, vector(packetBytes)"
vector 47 scenario.client0.tcp.conn-30 rcvSeq:vector ETV
attr interpolationmode sample-hold
vector 48 scenario.client0.tcp.conn-30 rcvAck:vector ETV
attr interpolationmode sample-hold
vector 49 scenario.client0.tcp.conn-30 sndWnd:vector ETV
attr interpolationmode sample-hold
vector 50 scenario.client0.tcp.conn-30 unacked:vector ETV
attr interpolationmode sample-hold
vector 51 scenario.client2.tcp.conn-31 rcvSeq:vector ETV
attr interpolationmode sample-hold
vector 52 scenario.client2.tcp.conn-31 rcvAck:vector ETV
attr interpolationmode sample-hold
vector 53 scenario.client2.tcp.conn-31 unacked:vector ETV
attr interpolationmode sample-hold
vector 54 scenario.client2.tcp.conn-31 cwnd:vector ETV
attr interpolationmode sample-hold
vector 55 scenario.client2.tcp.conn-31 ssthresh:vector ETV
attr interpolationmode sample-hold
vector 56 scenario.client2.tcp.conn-31 dupAcks:vector ETV
attr interpolationmode sample-hold
vector 57 scenario.client0.tcp.conn-30 rtt:vector ETV
attr interpolationmode sample-hold
vector 58 scenario.client0.tcp.conn-30 srtt:vector ETV
attr interpolationmode sample-hold
vector 59 scenario.client0.tcp.conn-30 rttvar:vector ETV
attr interpolationmode sample-hold
vector 60 scenario.client0.tcp.conn-30 rto:vector ETV
attr interpolationmode sample-hold
vector 61 scenario.client0.tcp.conn-30 cwnd:vector ETV
attr interpolationmode sample-hold
vector 62 scenario.client0.tcp.conn-30 ssthresh:vector ETV
attr interpolationmode sample-hold
vector 63 scenario.client0.tcp.conn-30 dupAcks:vector ETV
attr interpolationmode sample-hold
vector 64 scenario.client0.tcp.conn-32 tcpRcvQueueBytes:vector ETV
attr interpolationmode sample-hold
vector 65 scenario.client0.tcp.conn-32 rcvAdv:vector ETV
attr interpolationmode sample-hold
vector 66 scenario.client0.tcp.conn-32 rcvWnd:vector ETV
attr interpolationmode sample-hold
vector 67 scenario.client0.tcp.conn-32 sndAck:vector ETV
attr interpolationmode sample-hold
vector 68 scenario.client0.ppp[0].ppp rcvdPkFromHl:vector(packetBytes) ETV
attr interpolationmode none
attr source packetReceivedFromUpper
attr title "packets received from higher layer, vector(packetBytes)"
vector 69 scenario.client0.ppp[0].ppp.queue packetPushed:vector(packetBytes) ETV
attr interpolationmode none
attr title "packet pushed, vector(packetBytes)"
vector 70 scenario.client0.ppp[0].ppp.queue queueLength:vector ETV
attr interpolationmode sample-hold
attr source "count(packetPushed) - count(packetPopped) - count(packetRemoved) - count(packetDropped)"
attr title "queue length, vector"
vector 71 scenario.client0.ppp[0].ppp.queue packetPopped:vector(packetBytes) ETV
attr interpolationmode none
attr title "packet popped, vector(packetBytes)"
vector 72 scenario.client0.ppp[0].ppp.queue queueingTime:vector ETV
attr interpolationmode none
attr source queueingTime(packetPopped)
attr title "queueing times, vector"
attr unit s
vector 73 scenario.client0.ppp[0].ppp txPk:vector(packetBytes) ETV
attr interpolationmode none
attr source packetSentToLower
attr title "packets transmitted, vector(packetBytes)"
vector 74 scenario.client1.ppp[0].ppp rxPkOk:vector(packetBytes) ETV
attr interpolationmode none
attr source rxPkOk
attr title "packets received OK, vector(packetBytes)"
vector 75 scenario.client1.ppp[0].ppp passedUpPk:vector(packetBytes) ETV
attr interpolationmode none
attr source packetSentToUpper
attr title "packets passed to higher layer, vector(packetBytes)"
vector 76 scenario.client1.tcp.conn-26 rcvSeq:vector ETV
attr interpolationmode sample-hold
vector 77 scenario.client1.tcp.conn-26 rcvAck:vector ETV
attr interpolationmode sample-hold
vector 78 scenario.client1.tcp.conn-33 rcvAdv:vector ETV
attr interpolationmode sample-hold
vector 79 scenario.client1.tcp.conn-33 sndWnd:vector ETV
attr interpolationmode sample-hold
vector 80 scenario.client1.tcp.conn-33 tcpRcvQueueBytes:vector ETV
attr interpolationmode sample-hold
vector 81 scenario.client1.tcp.conn-33 rcvWnd:vector ETV
attr interpolationmode sample-hold
vector 82 scenario.client1.tcp.conn-33 sndAck:vector ETV
attr interpolationmode sample-hold
vector 83 scenario.client1.ppp[0].ppp rcvdPkFromHl:vector(packetBytes) ETV
attr interpolationmode none
attr source packetReceivedFromUpper
attr title "packets received from higher layer, vector(packetBytes)"
vector 84 scenario.client1.ppp[0].ppp.queue packetPushed:vector(packetBytes) ETV
attr interpolationmode none
attr title "packet pushed, vector(packetBytes)"
vector 85 scenario.client1.ppp[0].ppp.queue queueLength:vector ETV
attr interpolationmode sample-hold
attr source "count(packetPushed) - count(packetPopped) - count(packetRemoved) - count(packetDropped)"
attr title "queue length, vector"
vector 86 scenario.client1.ppp[0].ppp.queue packetPopped:vector(packetBytes) ETV
attr interpolationmode none
attr title "packet popped, vector(packetBytes)"
vector 87 scenario.client1.ppp[0].ppp.queue queueingTime:vector ETV
attr interpolationmode none
attr source queueingTime(packetPopped)
attr title "queueing times, vector"
attr unit s
vector 88 scenario.client1.ppp[0].ppp txPk:vector(packetBytes) ETV
attr interpolationmode none
attr source packetSentToLower
attr title "packets transmitted, vector(packetBytes)"
vector 89 scenario.client0.ppp[0].ppp rxPkOk:vector(packetBytes) ETV
attr interpolationmode none
attr source rxPkOk
attr title "packets received OK, vector(packetBytes)"
vector 90 scenario.client0.ppp[0].ppp passedUpPk:vector(packetBytes) ETV
attr interpolationmode none
attr source packetSentToUpper
attr title "packets passed to higher layer, vector(packetBytes)"
vector 91 scenario.client0.tcp.conn-32 rcvSeq:vector ETV
attr interpolationmode sample-hold
vector 92 scenario.client0.tcp.conn-32 rcvAck:vector ETV
attr interpolationmode sample-hold
vector 93 scenario.client0.tcp.conn-32 sndWnd:vector ETV
attr interpolationmode sample-hold
vector 94 scenario.client0.tcp.conn-32 unacked:vector ETV
attr interpolationmode sample-hold
vector 95 scenario.client1.tcp.conn-33 rcvSeq:vector ETV
attr interpolationmode sample-hold
vector 96 scenario.client1.tcp.conn-33 rcvAck:vector ETV
attr interpolationmode sample-hold
vector 97 scenario.client1.tcp.conn-33 unacked:vector ETV
attr interpolationmode sample-hold
vector 98 scenario.client1.tcp.conn-33 cwnd:vector ETV
attr interpolationmode sample-hold
vector 99 scenario.client1.tcp.conn-33 ssthresh:vector ETV
attr interpolationmode sample-hold
vector 100 scenario.client1.tcp.conn-33 dupAcks:vector ETV
attr interpolationmode sample-hold
vector 101 scenario.client0.tcp.conn-32 rtt:vector ETV
attr interpolationmode sample-hold
vector 102 scenario.client0.tcp.conn-32 srtt:vector ETV
attr interpolationmode sample-hold
vector 103 scenario.client0.tcp.conn-32 rttvar:vector ETV
attr interpolationmode sample-hold
vector 104 scenario.client0.tcp.conn-32 rto:vector ETV
attr interpolationmode sample-hold
vector 105 scenario.client0.tcp.conn-32 cwnd:vector ETV
attr interpolationmode sample-hold
vector 106 scenario.client0.tcp.conn-32 ssthresh:vector ETV
attr interpolationmode sample-hold
vector 107 scenario.client0.tcp.conn-32 dupAcks:vector ETV
attr interpolationmode sample-hold
vector 108 scenario.client3.tcp.conn-34 tcpRcvQueueBytes:vector ETV
attr interpolationmode sample-hold
vector 109 scenario.client3.tcp.conn-34 rcvAdv:vector ETV
attr interpolationmode sample-hold
vector 110 scenario.client3.tcp.conn-34 rcvWnd:vector ETV
attr interpolationmode sample-hold
vector 111 scenario.client3.tcp.conn-34 sndAck:vector ETV
attr interpolationmode sample-hold
vector 112 scenario.client3.ppp[0].ppp rcvdPkFromHl:vector(packetBytes) ETV
attr interpolationmode none
attr source packetReceivedFromUpper
attr title "packets received from higher layer, vector(packetBytes)"
vector 113 scenario.client3.ppp[0].ppp.queue packetPushed:vector(packetBytes) ETV
attr interpolationmode none
attr title "packet pushed, vector(packetBytes)"
vector 114 scenario.client3.ppp[0].ppp.queue queueLength:vector ETV
attr interpolationmode sample-hold
attr source "count(packetPushed) - count(packetPopped) - count(packetRemoved) - count(packetDropped)"
attr title "queue length, vector"
vector 115 scenario.client3.ppp[0].ppp.queue packetPopped:vector(packetBytes) ETV
attr interpolationmode none
attr title "packet popped, vector(packetBytes)"
vector 116 scenario.client3.ppp[0].ppp.queue queueingTime:vector ETV
attr interpolationmode none
attr source queueingTime(packetPopped)
attr title "queueing times, vector"
attr unit s
vector 117 scenario.client3.ppp[0].ppp txPk:vector(packetBytes) ETV
attr interpolationmode none
attr source packetSentToLower
attr title "packets transmitted, vector(packetBytes)"
vector 118 scenario.client0.ppp[2].ppp rxPkOk:vector(packetBytes) ETV
attr interpolationmode none
attr source rxPkOk
attr title "packets received OK, vector(packetBytes)"
vector 119 scenario.client0.ppp[2].ppp passedUpPk:vector(packetBytes) ETV
attr interpolationmode none
attr source packetSentToUpper
attr title "packets passed to higher layer, vector(packetBytes)"
vector 120 scenario.client0.tcp.conn-25 rcvSeq:vector ETV
attr interpolationmode sample-hold
vector 121 scenario.client0.tcp.conn-25 rcvAck:vector ETV
attr interpolationmode sample-hold
vector 122 scenario.client0.tcp.conn-35 rcvAdv:vector ETV
attr interpolationmode sample-hold
vector 123 scenario.client0.tcp.conn-35 sndWnd:vector ETV
attr interpolationmode sample-hold
vector 124 scenario.client0.tcp.conn-35 tcpRcvQueueBytes:vector ETV
attr interpolationmode sample-hold
vector 125 scenario.client0.tcp.conn-35 rcvWnd:vector ETV
attr interpolationmode sample-hold
vector 126 scenario.client0.tcp.conn-35 sndAck:vector ETV
attr interpolationmode sample-hold
vector 127 scenario.client0.ppp[2].ppp rcvdPkFromHl:vector(packetBytes) ETV
attr interpolationmode none
attr source packetReceivedFromUpper
attr title "packets received from higher layer, vector(packetBytes)"
vector 128 scenario.client0.ppp[2].ppp.queue packetPushed:vector(packetBytes) ETV
attr interpolationmode none
attr title "packet pushed, vector(packetBytes)"
vector 129 scenario.client0.ppp[2].ppp.queue queueLength:vector ETV
attr interpolationmode sample-hold
attr source "count(packetPushed) - count(packetPopped) - count(packetRemoved) - count(packetDropped)"
attr title "queue length, vector"
vector 130 scenario.client0.ppp[2].ppp.queue packetPopped:vector(packetBytes) ETV
attr interpolationmode none
attr title "packet popped, vector(packetBytes)"
vector 131 scenario.client0.ppp[2].ppp.queue queueingTime:vector ETV
attr interpolationmode none
attr source queueingTime(packetPopped)
attr title "queueing times, vector"
attr unit s
vector 132 scenario.client0.ppp[2].ppp txPk:vector(packetBytes) ETV
attr interpolationmode none
attr source packetSentToLower
attr title "packets transmitted, vector(packetBytes)"
vector 133 scenario.client3.ppp[0].ppp rxPkOk:vector(packetBytes) ETV
attr interpolationmode none
attr source rxPkOk
attr title "packets received OK, vector(packetBytes)"
vector 134 scenario.client3.ppp[0].ppp passedUpPk:vector(packetBytes) ETV
attr interpolationmode none
attr source packetSentToUpper
attr title "packets passed to higher layer, vector(packetBytes)"
vector 135 scenario.client3.tcp.conn-34 rcvSeq:vector ETV
attr interpolationmode sample-hold
vector 136 scenario.client3.tcp.conn-34 rcvAck:vector ETV
attr interpolationmode sample-hold
vector 137 scenario.client3.tcp.conn-34 sndWnd:vector ETV
attr interpolationmode sample-hold
vector 138 scenario.client3.tcp.conn-34 unacked:vector ETV
attr interpolationmode sample-hold
vector 139 scenario.client0.tcp.conn-35 rcvSeq:vector ETV
attr interpolationmode sample-hold
vector 140 scenario.client0.tcp.conn-35 rcvAck:vector ETV
attr interpolationmode sample-hold
vector 141 scenario.client0.tcp.conn-35 unacked:vector ETV
attr interpolationmode sample-hold
vector 142 scenario.client0.tcp.conn-35 cwnd:vector ETV
attr interpolationmode sample-hold
vector 143 scenario.client0.tcp.conn-35 ssthresh:vector ETV
attr interpolationmode sample-hold
vector 144 scenario.client0.tcp.conn-35 dupAcks:vector ETV
attr interpolationmode sample-hold
vector 145 scenario.client3.tcp.conn-34 rtt:vector ETV
attr interpolationmode sample-hold
vector 146 scenario.client3.tcp.conn-34 srtt:vector ETV
attr interpolationmode sample-hold
vector 147 scenario.client3.tcp.conn-34 rttvar:vector ETV
attr interpolationmode sample-hold
vector 148 scenario.client3.tcp.conn-34 rto:vector ETV
attr interpolationmode sample-hold
vector 149 scenario.client3.tcp.conn-34 cwnd:vector ETV
attr interpolationmode sample-hold
vector 150 scenario.client3.tcp.conn-34 ssthresh:vector ETV
attr interpolationmode sample-hold
vector 151 scenario.client3.tcp.conn-34 dupAcks:vector ETV
attr interpolationmode sample-hold
vector 152 scenario.client0.tcp.conn-36 tcpRcvQueueBytes:vector ETV
attr interpolationmode sample-hold
vector 153 scenario.client0.tcp.conn-36 rcvAdv:vector ETV
attr interpolationmode sample-hold
vector 154 scenario.client0.tcp.conn-36 rcvWnd:vector ETV
attr interpolationmode sample-hold
vector 155 scenario.client0.tcp.conn-36 sndAck:vector ETV
attr interpolationmode sample-hold
vector 156 scenario.client3.tcp.conn-28 rcvSeq:vector ETV
attr interpolationmode sample-hold
vector 157 scenario.client3.tcp.conn-28 rcvAck:vector ETV
attr interpolationmode sample-hold
vector 158 scenario.client3.tcp.conn-37 rcvAdv:vector ETV
attr interpolationmode sample-hold
vector 159 scenario.client3.tcp.conn-37 sndWnd:vector ETV
attr interpolationmode sample-hold
vector 160 scenario.client3.tcp.conn-37 tcpRcvQueueBytes:vector ETV
attr interpolationmode sample-hold
vector 161 scenario.client3.tcp.conn-37 rcvWnd:vector ETV
attr interpolationmode sample-hold
vector 162 scenario.client3.tcp.conn-37 sndAck:vector ETV
attr interpolationmode sample-hold
vector 163 scenario.client0.tcp.conn-36 rcvSeq:vector ETV
attr interpolationmode sample-hold
vector 164 scenario.client0.tcp.conn-36 rcvAck:vector ETV
attr interpolationmode sample-hold
vector 165 scenario.client0.tcp.conn-36 sndWnd:vector ETV
attr interpolationmode sample-hold
vector 166 scenario.client0.tcp.conn-36 unacked:vector ETV
attr interpolationmode sample-hold
vector 167 scenario.client3.tcp.conn-37 rcvSeq:vector ETV
attr interpolationmode sample-hold
vector 168 scenario.client3.tcp.conn-37 rcvAck:vector ETV
attr interpolationmode sample-hold
vector 169 scenario.client3.tcp.conn-37 unacked:vector ETV
attr interpolationmode sample-hold
vector 170 scenario.client3.tcp.conn-37 cwnd:vector ETV
attr interpolationmode sample-hold
vector 171 scenario.client3.tcp.conn-37 ssthresh:vector ETV
attr interpolationmode sample-hold
vector 172 scenario.client3.tcp.conn-37 dupAcks:vector ETV
attr interpolationmode sample-hold
vector 173 scenario.client0.tcp.conn-36 rtt:vector ETV
attr interpolationmode sample-hold
vector 174 scenario.client0.tcp.conn-36 srtt:vector ETV
attr interpolationmode sample-hold
vector 175 scenario.client0.tcp.conn-36 rttvar:vector ETV
attr interpolationmode sample-hold
vector 176 scenario.client0.tcp.conn-36 rto:vector ETV
attr interpolationmode sample-hold
vector 177 scenario.client0.tcp.conn-36 cwnd:vector ETV
attr interpolationmode sample-hold
vector 178 scenario.client0.tcp.conn-36 ssthresh:vector ETV
attr interpolationmode sample-hold
vector 179 scenario.client0.tcp.conn-36 dupAcks:vector ETV
attr interpolationmode sample-hold
vector 180 scenario.client1.tcp.conn-38 tcpRcvQueueBytes:vector ETV
attr interpolationmode sample-hold
vector 181 scenario.client1.tcp.conn-38 rcvAdv:vector ETV
attr interpolationmode sample-hold
vector 182 scenario.client1.tcp.conn-38 rcvWnd:vector ETV
attr interpolationmode sample-hold
vector 183 scenario.client1.tcp.conn-38 sndAck:vector ETV
attr interpolationmode sample-hold
vector 184 scenario.client0.tcp.conn-39 rcvAdv:vector ETV
attr interpolationmode sample-hold
vector 185 scenario.client0.tcp.conn-39 sndWnd:vector ETV
attr interpolationmode sample-hold
vector 186 scenario.client0.tcp.conn-39 tcpRcvQueueBytes:vector ETV
attr interpolationmode sample-hold
vector 187 scenario.client0.tcp.conn-39 rcvWnd:vector ETV
attr interpolationmode sample-hold
vector 188 scenario.client0.tcp.conn-39 sndAck:vector ETV
attr interpolationmode sample-hold
vector 189 scenario.client1.tcp.conn-38 rcvSeq:vector ETV
attr interpolationmode sample-hold
vector 190 scenario.client1.tcp.conn-38 rcvAck:vector ETV
attr interpolationmode sample-hold
vector 191 scenario.client1.tcp.conn-38 sndWnd:vector ETV
attr interpolationmode sample-hold
vector 192 scenario.client1.tcp.conn-38 unacked:vector ETV
attr interpolationmode sample-hold
vector 193 scenario.client0.tcp.conn-39 rcvSeq:vector ETV
attr interpolationmode sample-hold
vector 194 scenario.client0.tcp.conn-39 rcvAck:vector ETV
attr interpolationmode sample-hold
vector 195 scenario.client0.tcp.conn-39 unacked:vector ETV
attr interpolationmode sample-hold
vector 196 scenario.client0.tcp.conn-39 cwnd:vector ETV
attr interpolationmode sample-hold
vector 197 scenario.client0.tcp.conn-39 ssthresh:vector ETV
attr interpolationmode sample-hold
vector 198 scenario.client0.tcp.conn-39 dupAcks:vector ETV
attr interpolationmode sample-hold
vector 199 scenario.client1.tcp.conn-38 rtt:vector ETV
attr interpolationmode sample-hold
vector 200 scenario.client1.tcp.conn-38 srtt:vector ETV
attr interpolationmode sample-hold
vector 201 scenario.client1.tcp.conn-38 rttvar:vector ETV
attr interpolationmode sample-hold
vector 202 scenario.client1.tcp.conn-38 rto:vector ETV
attr interpolationmode sample-hold
vector 203 scenario.client1.tcp.conn-38 cwnd:vector ETV
attr interpolationmode sample-hold
vector 204 scenario.client1.tcp.conn-38 ssthresh:vector ETV
attr interpolationmode sample-hold
vector 205 scenario.client1.tcp.conn-38 dupAcks:vector ETV
attr interpolationmode sample-hold
vector 206 scenario.client2.tcp.conn-40 tcpRcvQueueBytes:vector ETV
attr interpolationmode sample-hold
vector 207 scenario.client2.tcp.conn-40 rcvAdv:vector ETV
attr interpolationmode sample-hold
vector 208 scenario.client2.tcp.conn-40 rcvWnd:vector ETV
attr interpolationmode sample-hold
vector 209 scenario.client2.tcp.conn-40 sndAck:vector ETV
attr interpolationmode sample-hold
vector 210 scenario.client2.ppp[1].ppp rcvdPkFromHl:vector(packetBytes) ETV
attr interpolationmode none
attr source packetReceivedFromUpper
attr title "packets received from higher layer, vector(packetBytes)"
vector 211 scenario.client2.ppp[1].ppp.queue packetPushed:vector(packetBytes) ETV
attr interpolationmode none
attr title "packet pushed, vector(packetBytes)"
vector 212 scenario.client2.ppp[1].ppp.queue queueLength:vector ETV
attr interpolationmode sample-hold
attr source "count(packetPushed) - count(packetPopped) - count(packetRemoved) - count(packetDropped)"
attr title "queue length, vector"
vector 213 scenario.client2.ppp[1].ppp.queue packetPopped:vector(packetBytes) ETV
attr interpolationmode none
attr title "packet popped, vector(packetBytes)"
vector 214 scenario.client2.ppp[1].ppp.queue queueingTime:vector ETV
attr interpolationmode none
attr source queueingTime(packetPopped)
attr title "queueing times, vector"
attr unit s
vector 215 scenario.client2.ppp[1].ppp txPk:vector(packetBytes) ETV
attr interpolationmode none
attr source packetSentToLower
attr title "packets transmitted, vector(packetBytes)"
vector 216 scenario.client1.ppp[1].ppp rxPkOk:vector(packetBytes) ETV
attr interpolationmode none
attr source rxPkOk
attr title "packets received OK, vector(packetBytes)"
vector 217 scenario.client1.ppp[1].ppp passedUpPk:vector(packetBytes) ETV
attr interpolationmode none
attr source packetSentToUpper
attr title "packets passed to higher layer, vector(packetBytes)"
vector 218 scenario.client1.tcp.conn-41 rcvAdv:vector ETV
attr interpolationmode sample-hold
vector 219 scenario.client1.tcp.conn-41 sndWnd:vector ETV
attr interpolationmode sample-hold
vector 220 scenario.client1.tcp.conn-41 tcpRcvQueueBytes:vector ETV
attr interpolationmode sample-hold
vector 221 scenario.client1.tcp.conn-41 rcvWnd:vector ETV
attr interpolationmode sample-hold
vector 222 scenario.client1.tcp.conn-41 sndAck:vector ETV
attr interpolationmode sample-hold
vector 223 scenario.client1.ppp[1].ppp rcvdPkFromHl:vector(packetBytes) ETV
attr interpolationmode none
attr source packetReceivedFromUpper
attr title "packets received from higher layer, vector(packetBytes)"
vector 224 scenario.client1.ppp[1].ppp.queue packetPushed:vector(packetBytes) ETV
attr interpolationmode none
attr title "packet pushed, vector(packetBytes)"
vector 225 scenario.client1.ppp[1].ppp.queue queueLength:vector ETV
attr interpolationmode sample-hold
attr source "count(packetPushed) - count(packetPopped) - count(packetRemoved) - count(packetDropped)"
attr title "queue length, vector"
vector 226 scenario.client1.ppp[1].ppp.queue packetPopped:vector(packetBytes) ETV
attr interpolationmode none
attr title "packet popped, vector(packetBytes)"
vector 227 scenario.client1.ppp[1].ppp.queue queueingTime:vector ETV
attr interpolationmode none
attr source queueingTime(packetPopped)
attr title "queueing times, vector"
attr unit s
vector 228 scenario.client1.ppp[1].ppp txPk:vector(packetBytes) ETV
attr interpolationmode none
attr source packetSentToLower
attr title "packets transmitted, vector(packetBytes)"
vector 229 scenario.client2.ppp[1].ppp rxPkOk:vector(packetBytes) ETV
attr interpolationmode none
attr source rxPkOk
attr title "packets received OK, vector(packetBytes)"
vector 230 scenario.client2.ppp[1].ppp passedUpPk:vector(packetBytes) ETV
attr interpolationmode none
attr source packetSentToUpper
attr title "packets passed to higher layer, vector(packetBytes)"
vector 231 scenario.client2.tcp.conn-40 rcvSeq:vector ETV
attr interpolationmode sample-hold
vector 232 scenario.client2.tcp.conn-40 rcvAck:vector ETV
attr interpolationmode sample-hold
vector 233 scenario.client2.tcp.conn-40 sndWnd:vector ETV
attr interpolationmode sample-hold
vector 234 scenario.client2.tcp.conn-40 unacked:vector ETV
attr interpolationmode sample-hold
vector 235 scenario.client1.tcp.conn-41 rcvSeq:vector ETV
attr interpolationmode sample-hold
vector 236 scenario.client1.tcp.conn-41 rcvAck:vector ETV
attr interpolationmode sample-hold
vector 237 scenario.client1.tcp.conn-41 unacked:vector ETV
attr interpolationmode sample-hold
vector 238 scenario.client1.tcp.conn-41 cwnd:vector ETV
attr interpolationmode sample-hold
vector 239 scenario.client1.tcp.conn-41 ssthresh:vector ETV
attr interpolationmode sample-hold
vector 240 scenario.client1.tcp.conn-41 dupAcks:vector ETV
attr interpolationmode sample-hold
vector 241 scenario.client2.tcp.conn-40 rtt:vector ETV
attr interpolationmode sample-hold
vector 242 scenario.client2.tcp.conn-40 srtt:vector ETV
attr interpolationmode sample-hold
vector 243 scenario.client2.tcp.conn-40 rttvar:vector ETV
attr interpolationmode sample-hold
vector 244 scenario.client2.tcp.conn-40 rto:vector ETV
attr interpolationmode sample-hold
vector 245 scenario.client2.tcp.conn-40 cwnd:vector ETV
attr interpolationmode sample-hold
vector 246 scenario.client2.tcp.conn-40 ssthresh:vector ETV
attr interpolationmode sample-hold
vector 247 scenario.client2.tcp.conn-40 dupAcks:vector ETV
attr interpolationmode sample-hold
vector 248 scenario.client3.tcp.conn-42 tcpRcvQueueBytes:vector ETV
attr interpolationmode sample-hold
vector 249 scenario.client3.tcp.conn-42 rcvAdv:vector ETV
attr interpolationmode sample-hold
vector 250 scenario.client3.tcp.conn-42 rcvWnd:vector ETV
attr interpolationmode sample-hold
vector 251 scenario.client3.tcp.conn-42 sndAck:vector ETV
attr interpolationmode sample-hold
vector 252 scenario.client3.ppp[1].ppp rcvdPkFromHl:vector(packetBytes) ETV
attr interpolationmode none
attr source packetReceivedFromUpper
attr title "packets received from higher layer, vector(packetBytes)"
vector 253 scenario.client3.ppp[1].ppp.queue packetPushed:vector(packetBytes) ETV
attr interpolationmode none
attr title "packet pushed, vector(packetBytes)"
vector 254 scenario.client3.ppp[1].ppp.queue queueLength:vector ETV
attr interpolationmode sample-hold
attr source "count(packetPushed) - count(packetPopped) - count(packetRemoved) - count(packetDropped)"
attr title "queue length, vector"
vector 255 scenario.client3.ppp[1].ppp.queue packetPopped:vector(packetBytes) ETV
attr interpolationmode none
attr title "packet popped, vector(packetBytes)"
vector 256 scenario.client3.ppp[1].ppp.queue queueingTime:vector ETV
attr interpolationmode none
attr source queueingTime(packetPopped)
attr title "queueing times, vector"
attr unit s
vector 257 scenario.client3.ppp[1].ppp txPk:vector(packetBytes) ETV
attr interpolationmode none
attr source packetSentToLower
attr title "packets transmitted, vector(packetBytes)"
vector 258 scenario.client1.ppp[2].ppp rxPkOk:vector(packetBytes) ETV
attr interpolationmode none
attr source rxPkOk
attr title "packets received OK, vector(packetBytes)"
vector 259 scenario.client1.ppp[2].ppp passedUpPk:vector(packetBytes) ETV
attr interpolationmode none
attr source packetSentToUpper
attr title "packets passed to higher layer, vector(packetBytes)"
vector 260 scenario.client1.tcp.conn-43 rcvAdv:vector ETV
attr interpolationmode sample-hold
vector 261 scenario.client1.tcp.conn-43 sndWnd:vector ETV
attr interpolationmode sample-hold
vector 262 scenario.client1.tcp.conn-43 tcpRcvQueueBytes:vector ETV
attr interpolationmode sample-hold
vector 263 scenario.client1.tcp.conn-43 rcvWnd:vector ETV
attr interpolationmode sample-hold
vector 264 scenario.client1.tcp.conn-43 sndAck:vector ETV
attr interpolationmode sample-hold
vector 265 scenario.client1.ppp[2].ppp rcvdPkFromHl:vector(packetBytes) ETV
attr interpolationmode none
attr source packetReceivedFromUpper
attr title "packets received from higher layer, vector(packetBytes)"
vector 266 scenario.client1.ppp[2].ppp.queue packetPushed:vector(packetBytes) ETV
attr interpolationmode none
attr title "packet pushed, vector(packetBytes)"
vector 267 scenario.client1.ppp[2].ppp.queue queueLength:vector ETV
attr interpolationmode sample-hold
attr source "count(packetPushed) - count(packetPopped) - count(packetRemoved) - count(packetDropped)"
attr title "queue length, vector"
vector 268 scenario.client1.ppp[2].ppp.queue packetPopped:vector(packetBytes) ETV
attr interpolationmode none
attr title "packet popped, vector(packetBytes)"
vector 269 scenario.client1.ppp[2].ppp.queue queueingTime:vector ETV
attr interpolationmode none
attr source queueingTime(packetPopped)
attr title "queueing times, vector"
attr unit s
vector 270 scenario.client1.ppp[2].ppp txPk:vector(packetBytes) ETV
attr interpolationmode none
attr source packetSentToLower
attr title "packets transmitted, vector(packetBytes)"
vector 271 scenario.client3.ppp[1].ppp rxPkOk:vector(packetBytes) ETV
attr interpolationmode none
attr source rxPkOk
attr title "packets received OK, vector(packetBytes)"
vector 272 scenario.client3.ppp[1].ppp passedUpPk:vector(packetBytes) ETV
attr interpolationmode none
attr source packetSentToUpper
attr title "packets passed to higher layer, vector(packetBytes)"
vector 273 scenario.client3.tcp.conn-42 rcvSeq:vector ETV
attr interpolationmode sample-hold
vector 274 scenario.client3.tcp.conn-42 rcvAck:vector ETV
attr interpolationmode sample-hold
vector 275 scenario.client3.tcp.conn-42 sndWnd:vector ETV
attr interpolationmode sample-hold
vector 276 scenario.client3.tcp.conn-42 unacked:vector ETV
attr interpolationmode sample-hold
vector 277 scenario.client1.tcp.conn-43 rcvSeq:vector ETV
attr interpolationmode sample-hold
vector 278 scenario.client1.tcp.conn-43 rcvAck:vector ETV
attr interpolationmode sample-hold
vector 279 scenario.client1.tcp.conn-43 unacked:vector ETV
attr interpolationmode sample-hold
vector 280 scenario.client1.tcp.conn-43 cwnd:vector ETV
attr interpolationmode sample-hold
vector 281 scenario.client1.tcp.conn-43 ssthresh:vector ETV
attr interpolationmode sample-hold
vector 282 scenario.client1.tcp.conn-43 dupAcks:vector ETV
attr interpolationmode sample-hold
vector 283 scenario.client3.tcp.conn-42 rtt:vector ETV
attr interpolationmode sample-hold
vector 284 scenario.client3.tcp.conn-42 srtt:vector ETV
attr interpolationmode sample-hold
vector 285 scenario.client3.tcp.conn-42 rttvar:vector ETV
attr interpolationmode sample-hold
vector 286 scenario.client3.tcp.conn-42 rto:vector ETV
attr interpolationmode sample-hold
vector 287 scenario.client3.tcp.conn-42 cwnd:vector ETV
attr interpolationmode sample-hold
vector 288 scenario.client3.tcp.conn-42 ssthresh:vector ETV
attr interpolationmode sample-hold
vector 289 scenario.client3.tcp.conn-42 dupAcks:vector ETV
attr interpolationmode sample-hold
vector 290 scenario.client1.tcp.conn-44 tcpRcvQueueBytes:vector ETV
attr interpolationmode sample-hold
vector 291 scenario.client1.tcp.conn-44 rcvAdv:vector ETV
attr interpolationmode sample-hold
vector 292 scenario.client1.tcp.conn-44 rcvWnd:vector ETV
attr interpolationmode sample-hold
vector 293 scenario.client1.tcp.conn-44 sndAck:vector ETV
attr interpolationmode sample-hold
vector 294 scenario.client2.tcp.conn-45 rcvAdv:vector ETV
attr interpolationmode sample-hold
vector 295 scenario.client2.tcp.conn-45 sndWnd:vector ETV
attr interpolationmode sample-hold
vector 296 scenario.client2.tcp.conn-45 tcpRcvQueueBytes:vector ETV
attr interpolationmode sample-hold
vector 297 scenario.client2.tcp.conn-45 rcvWnd:vector ETV
attr interpolationmode sample-hold
vector 298 scenario.client2.tcp.conn-45 sndAck:vector ETV
attr interpolationmode sample-hold
vector 299 scenario.client1.tcp.conn-44 rcvSeq:vector ETV
attr interpolationmode sample-hold
vector 300 scenario.client1.tcp.conn-44 rcvAck:vector ETV
attr interpolationmode sample-hold
vector 301 scenario.client1.tcp.conn-44 sndWnd:vector ETV
attr interpolationmode sample-hold
vector 302 scenario.client1.tcp.conn-44 unacked:vector ETV
attr interpolationmode sample-hold
vector 303 scenario.client2.tcp.conn-45 rcvSeq:vector ETV
attr interpolationmode sample-hold
vector 304 scenario.client2.tcp.conn-45 rcvAck:vector ETV
attr interpolationmode sample-hold
vector 305 scenario.client2.tcp.conn-45 unacked:vector ETV
attr interpolationmode sample-hold
vector 306 scenario.client2.tcp.conn-45 cwnd:vector ETV
attr interpolationmode sample-hold
vector 307 scenario.client2.tcp.conn-45 ssthresh:vector ETV
attr interpolationmode sample-hold
vector 308 scenario.client2.tcp.conn-45 dupAcks:vector ETV
attr interpolationmode sample-hold
vector 309 scenario.client1.tcp.conn-44 rtt:vector ETV
attr interpolationmode sample-hold
vector 310 scenario.client1.tcp.conn-44 srtt:vector ETV
attr interpolationmode sample-hold
vector 311 scenario.client1.tcp.conn-44 rttvar:vector ETV
attr interpolationmode sample-hold
vector 312 scenario.client1.tcp.conn-44 rto:vector ETV
attr interpolationmode sample-hold
vector 313 scenario.client1.tcp.conn-44 cwnd:vector ETV
attr interpolationmode sample-hold
vector 314 scenario.client1.tcp.conn-44 ssthresh:vector ETV
attr interpolationmode sample-hold
vector 315 scenario.client1.tcp.conn-44 dupAcks:vector ETV
attr interpolationmode sample-hold
vector 316 scenario.client3.tcp.conn-46 tcpRcvQueueBytes:vector ETV
attr interpolationmode sample-hold
vector 317 scenario.client3.tcp.conn-46 rcvAdv:vector ETV
attr interpolationmode sample-hold
vector 318 scenario.client3.tcp.conn-46 rcvWnd:vector ETV
attr interpolationmode sample-hold
vector 319 scenario.client3.tcp.conn-46 sndAck:vector ETV
attr interpolationmode sample-hold
vector 320 scenario.client3.ppp[2].ppp rcvdPkFromHl:vector(packetBytes) ETV
attr interpolationmode none
attr source packetReceivedFromUpper
attr title "packets received from higher layer, vector(packetBytes)"
vector 321 scenario.client3.ppp[2].ppp.queue packetPushed:vector(packetBytes) ETV
attr interpolationmode none
attr title "packet pushed, vector(packetBytes)"
vector 322 scenario.client3.ppp[2].ppp.queue queueLength:vector ETV
attr interpolationmode sample-hold
attr source "count(packetPushed) - count(packetPopped) - count(packetRemoved) - count(packetDropped)"
attr title "queue length, vector"
vector 323 scenario.client3.ppp[2].ppp.queue packetPopped:vector(packetBytes) ETV
attr interpolationmode none
attr title "packet popped, vector(packetBytes)"
vector 324 scenario.client3.ppp[2].ppp.queue queueingTime:vector ETV
attr interpolationmode none
attr source queueingTime(packetPopped)
attr title "queueing times, vector"
attr unit s
vector 325 scenario.client3.ppp[2].ppp txPk:vector(packetBytes) ETV
attr interpolationmode none
attr source packetSentToLower
attr title "packets transmitted, vector(packetBytes)"
vector 326 scenario.client2.ppp[2].ppp rxPkOk:vector(packetBytes) ETV
attr interpolationmode none
attr source rxPkOk
attr title "packets received OK, vector(packetBytes)"
vector 327 scenario.client2.ppp[2].ppp passedUpPk:vector(packetBytes) ETV
attr interpolationmode none
attr source packetSentToUpper
attr title "packets passed to higher layer, vector(packetBytes)"
vector 328 scenario.client2.tcp.conn-47 rcvAdv:vector ETV
attr interpolationmode sample-hold
vector 329 scenario.client2.tcp.conn-47 sndWnd:vector ETV
attr interpolationmode sample-hold
vector 330 scenario.client2.tcp.conn-47 tcpRcvQueueBytes:vector ETV
attr interpolationmode sample-hold
vector 331 scenario.client2.tcp.conn-47 rcvWnd:vector ETV
attr interpolationmode sample-hold
vector 332 scenario.client2.tcp.conn-47 sndAck:vector ETV
attr interpolationmode sample-hold
vector 333 scenario.client2.ppp[2].ppp rcvdPkFromHl:vector(packetBytes) ETV
attr interpolationmode none
attr source packetReceivedFromUpper
attr title "packets received from higher layer, vector(packetBytes)"
vector 334 scenario.client2.ppp[2].ppp.queue packetPushed:vector(packetBytes) ETV
attr interpolationmode none
attr title "packet pushed, vector(packetBytes)"
vector 335 scenario.client2.ppp[2].ppp.queue queueLength:vector ETV
attr interpolationmode sample-hold
attr source "count(packetPushed) - count(packetPopped) - count(packetRemoved) - count(packetDropped)"
attr title "queue length, vector"
vector 336 scenario.client2.ppp[2].ppp.queue packetPopped:vector(packetBytes) ETV
attr interpolationmode none
attr title "packet popped, vector(packetBytes)"
vector 337 scenario.client2.ppp[2].ppp.queue queueingTime:vector ETV
attr interpolationmode none
attr source queueingTime(packetPopped)
attr title "queueing times, vector"
attr unit s
vector 338 scenario.client2.ppp[2].ppp txPk:vector(packetBytes) ETV
attr interpolationmode none
attr source packetSentToLower
attr title "packets transmitted, vector(packetBytes)"
vector 339 scenario.client3.ppp[2].ppp rxPkOk:vector(packetBytes) ETV
attr interpolationmode none
attr source rxPkOk
attr title "packets received OK, vector(packetBytes)"
vector 340 scenario.client3.ppp[2].ppp passedUpPk:vector(packetBytes) ETV
attr interpolationmode none
attr source packetSentToUpper
attr title "packets passed to higher layer, vector(packetBytes)"
vector 341 scenario.client3.tcp.conn-46 rcvSeq:vector ETV
attr interpolationmode sample-hold
vector 342 scenario.client3.tcp.conn-46 rcvAck:vector ETV
attr interpolationmode sample-hold
vector 343 scenario.client3.tcp.conn-46 sndWnd:vector ETV
attr interpolationmode sample-hold
vector 344 scenario.client3.tcp.conn-46 unacked:vector ETV
attr interpolationmode sample-hold
vector 345 scenario.client2.tcp.conn-47 rcvSeq:vector ETV
attr interpolationmode sample-hold
vector 346 scenario.client2.tcp.conn-47 rcvAck:vector ETV
attr interpolationmode sample-hold
vector 347 scenario.client2.tcp.conn-47 unacked:vector ETV
attr interpolationmode sample-hold
vector 348 scenario.client2.tcp.conn-47 cwnd:vector ETV
attr interpolationmode sample-hold
vector 349 scenario.client2.tcp.conn-47 ssthresh:vector ETV
attr interpolationmode sample-hold
vector 350 scenario.client2.tcp.conn-47 dupAcks:vector ETV
attr interpolationmode sample-hold
vector 351 scenario.client3.tcp.conn-46 rtt:vector ETV
attr interpolationmode sample-hold
vector 352 scenario.client3.tcp.conn-46 srtt:vector ETV
attr interpolationmode sample-hold
vector 353 scenario.client3.tcp.conn-46 rttvar:vector ETV
attr interpolationmode sample-hold
vector 354 scenario.client3.tcp.conn-46 rto:vector ETV
attr interpolationmode sample-hold
vector 355 scenario.client3.tcp.conn-46 cwnd:vector ETV
attr interpolationmode sample-hold
vector 356 scenario.client3.tcp.conn-46 ssthresh:vector ETV
attr interpolationmode sample-hold
vector 357 scenario.client3.tcp.conn-46 dupAcks:vector ETV
attr interpolationmode sample-hold
vector 358 scenario.client2.tcp.conn-48 tcpRcvQueueBytes:vector ETV
attr interpolationmode sample-hold
vector 359 scenario.client2.tcp.conn-48 rcvAdv:vector ETV
attr interpolationmode sample-hold
vector 360 scenario.client2.tcp.conn-48 rcvWnd:vector ETV
attr interpolationmode sample-hold
vector 361 scenario.client2.tcp.conn-48 sndAck:vector ETV
attr interpolationmode sample-hold
vector 362 scenario.client0.tcp.conn-49 rcvAdv:vector ETV
attr interpolationmode sample-hold
vector 363 scenario.client0.tcp.conn-49 sndWnd:vector ETV
attr interpolationmode sample-hold
vector 364 scenario.client0.tcp.conn-49 tcpRcvQueueBytes:vector ETV
attr interpolationmode sample-hold
vector 365 scenario.client0.tcp.conn-49 rcvWnd:vector ETV
attr interpolationmode sample-hold
vector 366 scenario.client0.tcp.conn-49 sndAck:vector ETV
attr interpolationmode sample-hold
vector 367 scenario.client2.tcp.conn-48 rcvSeq:vector ETV
attr interpolationmode sample-hold
vector 368 scenario.client2.tcp.conn-48 rcvAck:vector ETV
attr interpolationmode sample-hold
vector 369 scenario.client2.tcp.conn-48 sndWnd:vector ETV
attr interpolationmode sample-hold
vector 370 scenario.client2.tcp.conn-48 unacked:vector ETV
attr interpolationmode sample-hold
vector 371 scenario.client0.tcp.conn-49 rcvSeq:vector ETV
attr interpolationmode sample-hold
vector 372 scenario.client0.tcp.conn-49 rcvAck:vector ETV
attr interpolationmode sample-hold
vector 373 scenario.client0.tcp.conn-49 unacked:vector ETV
attr interpolationmode sample-hold
vector 374 scenario.client0.tcp.conn-49 cwnd:vector ETV
attr interpolationmode sample-hold
vector 375 scenario.client0.tcp.conn-49 ssthresh:vector ETV
attr interpolationmode sample-hold
vector 376 scenario.client0.tcp.conn-49 dupAcks:vector ETV
attr interpolationmode sample-hold
vector 377 scenario.client2.tcp.conn-48 rtt:vector ETV
attr interpolationmode sample-hold
vector 378 scenario.client2.tcp.conn-48 srtt:vector ETV
attr interpolationmode sample-hold
vector 379 scenario.client2.tcp.conn-48 rttvar:vector ETV
attr interpolationmode sample-hold
vector 380 scenario.client2.tcp.conn-48 rto:vector ETV
attr interpolationmode sample-hold
vector 381 scenario.client2.tcp.conn-48 cwnd:vector ETV
attr interpolationmode sample-hold
vector 382 scenario.client2.tcp.conn-48 ssthresh:vector ETV
attr interpolationmode sample-hold
vector 383 scenario.client2.tcp.conn-48 dupAcks:vector ETV
attr interpolationmode sample-hold
vector 384 scenario.client2.tcp.conn-50 tcpRcvQueueBytes:vector ETV
attr interpolationmode sample-hold
vector 385 scenario.client2.tcp.conn-50 rcvAdv:vector ETV
attr interpolationmode sample-hold
vector 386 scenario.client2.tcp.conn-50 rcvWnd:vector ETV
attr interpolationmode sample-hold
vector 387 scenario.client2.tcp.conn-50 sndAck:vector ETV
attr interpolationmode sample-hold
vector 388 scenario.client3.tcp.conn-51 rcvAdv:vector ETV
attr interpolationmode sample-hold
vector 389 scenario.client3.tcp.conn-51 sndWnd:vector ETV
attr interpolationmode sample-hold
vector 390 scenario.client3.tcp.conn-51 tcpRcvQueueBytes:vector ETV
attr interpolationmode sample-hold
vector 391 scenario.client3.tcp.conn-51 rcvWnd:vector ETV
attr interpolationmode sample-hold
vector 392 scenario.client3.tcp.conn-51 sndAck:vector ETV
attr interpolationmode sample-hold
vector 393 scenario.client2.tcp.conn-50 rcvSeq:vector ETV
attr interpolationmode sample-hold
vector 394 scenario.client2.tcp.conn-50 rcvAck:vector ETV
attr interpolationmode sample-hold
vector 395 scenario.client2.tcp.conn-50 sndWnd:vector ETV
attr interpolationmode sample-hold
vector 396 scenario.client2.tcp.conn-50 unacked:vector ETV
attr interpolationmode sample-hold
vector 397 scenario.client3.tcp.conn-51 rcvSeq:vector ETV
attr interpolationmode sample-hold
vector 398 scenario.client3.tcp.conn-51 rcvAck:vector ETV
attr interpolationmode sample-hold
vector 399 scenario.client3.tcp.conn-51 unacked:vector ETV
attr interpolationmode sample-hold
vector 400 scenario.client3.tcp.conn-51 cwnd:vector ETV
attr interpolationmode sample-hold
vector 401 scenario.client3.tcp.conn-51 ssthresh:vector ETV
attr interpolationmode sample-hold
vector 402 scenario.client3.tcp.conn-51 dupAcks:vector ETV
attr interpolationmode sample-hold
vector 403 scenario.client2.tcp.conn-50 rtt:vector ETV
attr interpolationmode sample-hold
vector 404 scenario.client2.tcp.conn-50 srtt:vector ETV
attr interpolationmode sample-hold
vector 405 scenario.client2.tcp.conn-50 rttvar:vector ETV
attr interpolationmode sample-hold
vector 406 scenario.client2.tcp.conn-50 rto:vector ETV
attr interpolationmode sample-hold
vector 407 scenario.client2.tcp.conn-50 cwnd:vector ETV
attr interpolationmode sample-hold
vector 408 scenario.client2.tcp.conn-50 ssthresh:vector ETV
attr interpolationmode sample-hold
vector 409 scenario.client2.tcp.conn-50 dupAcks:vector ETV
attr interpolationmode sample-hold
vector 410 scenario.client1.tcp.conn-52 tcpRcvQueueBytes:vector ETV
attr interpolationmode sample-hold
vector 411 scenario.client1.tcp.conn-52 rcvAdv:vector ETV
attr interpolationmode sample-hold
vector 412 scenario.client1.tcp.conn-52 rcvWnd:vector ETV
attr interpolationmode sample-hold
vector 413 scenario.client1.tcp.conn-52 sndAck:vector ETV
attr interpolationmode sample-hold
vector 414 scenario.client3.tcp.conn-53 rcvAdv:vector ETV
attr interpolationmode sample-hold
vector 415 scenario.client3.tcp.conn-53 sndWnd:vector ETV
attr interpolationmode sample-hold
vector 416 scenario.client3.tcp.conn-53 tcpRcvQueueBytes:vector ETV
attr interpolationmode sample-hold
vector 417 scenario.client3.tcp.conn-53 rcvWnd:vector ETV
attr interpolationmode sample-hold
vector 418 scenario.client3.tcp.conn-53 sndAck:vector ETV
attr interpolationmode sample-hold
vector 419 scenario.client1.tcp.conn-52 rcvSeq:vector ETV
attr interpolationmode sample-hold
vector 420 scenario.client1.tcp.conn-52 rcvAck:vector ETV
attr interpolationmode sample-hold
vector 421 scenario.client1.tcp.conn-52 sndWnd:vector ETV
attr interpolationmode sample-hold
vector 422 scenario.client1.tcp.conn-52 unacked:vector ETV
attr interpolationmode sample-hold
vector 423 scenario.client3.tcp.conn-53 rcvSeq:vector ETV
attr interpolationmode sample-hold
vector 424 scenario.client3.tcp.conn-53 rcvAck:vector ETV
attr interpolationmode sample-hold
vector 425 scenario.client3.tcp.conn-53 unacked:vector ETV
attr interpolationmode sample-hold
vector 426 scenario.client3.tcp.conn-53 cwnd:vector ETV
attr interpolationmode sample-hold
vector 427 scenario.client3.tcp.conn-53 ssthresh:vector ETV
attr interpolationmode sample-hold
vector 428 scenario.client3.tcp.conn-53 dupAcks:vector ETV
attr interpolationmode sample-hold
vector 429 scenario.client1.tcp.conn-52 rtt:vector ETV
attr interpolationmode sample-hold
vector 430 scenario.client1.tcp.conn-52 srtt:vector ETV
attr interpolationmode sample-hold
vector 431 scenario.client1.tcp.conn-52 rttvar:vector ETV
attr interpolationmode sample-hold
vector 432 scenario.client1.tcp.conn-52 rto:vector ETV
attr interpolationmode sample-hold
vector 433 scenario.client1.tcp.conn-52 cwnd:vector ETV
attr interpolationmode sample-hold
vector 434 scenario.client1.tcp.conn-52 ssthresh:vector ETV
attr interpolationmode sample-hold
vector 435 scenario.client1.tcp.conn-52 dupAcks:vector ETV
attr interpolationmode sample-hold
0	0	0	0
0	44	1.37797173986	1
0	45	1.37837973986	0
0	57	1.37978773986	1
0	58	1.38017173986	0
0	147	1.794383142674	1
0	148	1.794791142674	0
0	162	1.796175142674	1
0	165	1.796551142674	0
0	447	3.254921109653	1
0	448	3.255305109653	0
0	469	3.31568138847	1
0	470	3.31605738847	0
0	484	3.402263436628	1
0	485	3.402639436628	0
0	507	3.46595452913	1
0	508	3.46633852913	0
0	552	3.682971650014	1
0	553	3.683355650014	0
0	579	3.688435499984	1
0	580	3.688819499984	0
0	634	3.857781672292	1
0	635	3.858157672292	0
0	687	3.89486269808	1
0	688	3.89524669808	0
0	724	3.908714991057	1
0	725	3.909090991057	0
0	762	3.931696465469	1
0	763	3.932080465469	0
0	822	3.946284312998	1
0	823	3.946668312998	0
0	904	3.96770830665	1
0	905	3.96808430665	0
0	957	4.011840144902	1
0	958	4.012224144902	0
0	994	4.025691401105	1
0	995	4.026067401105	0
0	1089	4.078855681387	1
0	1090	4.079231681387	0
0	1159	4.103332562762	1
0	1160	4.103708562762	0
0	1257	4.147798031068	1
0	1258	4.148182031068	0
0	1309	4.179354169866	1
0	1310	4.179730169866	0
0	1339	4.200105719535	1
0	1340	4.200481719535	0
0	1392	4.221806453322	1
0	1393	4.222190453322	0
0	1414	4.224736230232	1
0	1415	4.225112230232	0
0	1429	4.235628227791	1
0	1430	4.236004227791	0
0	1534	4.2839695468	1
0	1535	4.2843455468	0
0	1557	4.295203468612	1
0	1558	4.295587468612	0
0	1569	4.296848357798	1
0	1573	4.297232357798	0
0	1655	4.331488939604	1
0	1656	4.331864939604	0
0	1670	4.3334116057	1
0	1675	4.3337876057	0
0	1675	4.3337876057	1
0	1676	4.3341716057	0
0	1805	4.396461809504	1
0	1806	4.396837809504	0
0	1900	4.420660913968	1
0	1901	4.421036913968	0
0	1933	4.42957335551	1
0	1934	4.42995735551	0
0	1955	4.435186687704	1
0	1956	4.435562687704	0
0	1985	4.444009647266	1
0	1986	4.444385647266	0
0	2024	4.45054164507	1
0	2026	4.45092564507	0
0	2047	4.452094978728	1
0	2054	4.452478978728	0
0	2083	4.464151863521	1
0	2084	4.464535863521	0
0	2204	4.493570669882	1
0	2206	4.493946669882	0
0	2212	4.493954669882	1
0	2213	4.494330669882	0
0	2219	4.494338669882	1
0	2223	4.494714669882	0
0	2244	4.500590963836	1
0	2246	4.500966963836	0
0	2252	4.501445482101	1
0	2256	4.501821482101	0
0	2384	4.527722955535	1
0	2392	4.528106955535	0
0	2435	4.550669764336	1
0	2436	4.551045764336	0
0	2443	4.552837615284	1
0	2444	4.553221615284	0
0	2473	4.571502202461	1
0	2474	4.571886202461	0
0	2525	4.58125138438	1
0	2526	4.58162738438	0
0	2578	4.59178027015	1
0	2579	4.59216427015	0
0	2600	4.597546194891	1
0	2601	4.597922194891	0
0	2616	4.601148415785	1
0	2619	4.601532415785	0
0	2668	4.610854338573	1
0	2669	4.611238338573	0
0	2690	4.619856262093	1
0	2691	4.620232262093	0
0	2728	4.637193885799	1
0	2729	4.637577885799	0
0	2750	4.639602774499	1
0	2751	4.639978774499	0
0	2755	4.640241589648	1
0	2759	4.640625589648	0
0	2773	4.643450180243	1
0	2774	4.643834180243	0
0	2795	4.646684105472	1
0	2796	4.647060105472	0
0	2818	4.661208842433	1
0	2819	4.661592842433	0
0	2990	4.69545164684	1
0	2991	4.69582764684	0
0	3103	4.740131781487	1
0	3104	4.740515781487	0
0	3125	4.742845855281	1
0	3126	4.743221855281	0
0	3133	4.748006593707	1
0	3138	4.748390593707	0
0	3185	4.755081704032	1
0	3186	4.755457704032	0
0	3208	4.760942294625	1
0	3209	4.761326294625	0
0	3253	4.772175179663	1
0	3254	4.772559179663	0
0	3283	4.784626731529	1
0	3284	4.785010731529	0
0	3309	4.794241098789	1
0	3311	4.794625098789	0
0	3355	4.799397690115	1
0	3359	4.799781690115	0
0	3370	4.801076208136	1
0	3374	4.801460208136	0
0	3396	4.802789245156	1
0	3401	4.803173245156	0
0	3463	4.816397536668	1
0	3465	4.816773536668	0
0	3493	4.820547017182	1
0	3494	4.820931017182	0
0	3519	4.829820496963	1
0	3521	4.830196496963	0
0	3545	4.83644508707	1
0	3550	4.83682108707	0
0	3783	4.884148627705	1
0	3792	4.884524627705	0
0	3792	4.884524627705	1
0	3802	4.884908627705	0
0	3802	4.884908627705	1
0	3806	4.885284627705	0
0	3913	4.896140328379	1
0	3914	4.896524328379	0
0	3940	4.89989306827	1
0	3948	4.90027706827	0
0	3948	4.90027706827	1
0	3953	4.90066106827	0
0	3973	4.901237956236	1
0	3975	4.901613956236	0
0	3988	4.908530843227	1
0	3989	4.908914843227	0
0	4097	4.920765655202	1
0	4101	4.921141655202	0
0	4105	4.921472764793	1
0	4109	4.921856764793	0
0	4127	4.922797654714	1
0	4128	4.923173654714	0
0	4150	4.925043430403	1
0	4151	4.925427430403	0
0	4190	4.931782837123	1
0	4191	4.932158837123	0
0	4270	4.943519722648	1
0	4271	4.943895722648	0
0	4310	4.951742979094	1
0	4311	4.952118979094	0
0	4318	4.955567570667	1
0	4319	4.955951570667	0
0	4333	4.959865049715	1
0	4334	4.960249049715	0
0	4374	4.968893344645	1
0	4376	4.969277344645	0
0	4428	4.973013343424	1
0	4435	4.973397343424	0
0	4446	4.973901490525	1
0	4455	4.974285490525	0
0	4501	4.976311415998	1
0	4503	4.976687415998	0
0	4528	4.985363709465	1
0	4529	4.985747709465	0
0	4543	4.986473042879	1
0	4546	4.986857042879	0
0	4655	4.99922977984	1
0	4656	4.99960577984	0
0	4685	5.003838074771	1
0	4686	5.004214074771	0
0	4700	5.009410221382	1
0	4705	5.009786221382	0
0	4728	5.012355849239	1
0	4735	5.012739849239	0
0	4750	5.013269330974	1
0	4756	5.013653330974	0
0	4783	5.016227552842	1
0	4784	5.016611552842	0
0	4835	5.021081032625	1
0	4836	5.021457032625	0
0	4895	5.028284437636	1
0	4900	5.028660437636	0
0	4904	5.028806362621	1
0	4909	5.029190362621	0
0	4915	5.029352585466	1
0	4922	5.029728585466	0
0	4960	5.034020880642	1
0	4964	5.034404880642	0
0	4982	5.0358256198	1
0	4984	5.0362096198	0
0	5015	5.038839694814	1
0	5016	5.039215694814	0
0	5041	5.04033717533	1
0	5043	5.04071317533	0
0	5105	5.051354357249	1
0	5106	5.051730357249	0
0	5124	5.053164727195	1
0	5126	5.053540727195	0
0	5195	5.061640131717	1
0	5196	5.062016131717	0
0	5297	5.074978793909	1
0	5299	5.075362793909	0
0	5305	5.075498645344	1
0	5312	5.075874645344	0
0	5323	5.081354052066	1
0	5328	5.081738052066	0
0	5375	5.0888036787	1
0	5376	5.0891796787	0
0	5458	5.099514638753	1
0	5459	5.099898638753	0
0	5473	5.103084267587	1
0	5478	5.103468267587	0
0	5491	5.104121896909	1
0	5493	5.104497896909	0
0	5526	5.11096011658	1
0	5528	5.11133611658	0
0	5582	5.115751522569	1
0	5588	5.116135522569	0
0	5595	5.116286041567	1
0	5602	5.116662041567	0
0	5646	5.118741299722	1
0	5654	5.119117299722	0
0	5675	5.128355666982	1
0	5680	5.128731666982	0
0	5795	5.135003518173	1
0	5796	5.135379518173	0
0	5810	5.137633293863	1
0	5811	5.138009293863	0
0	5845	5.144131662832	1
0	5856	5.144507662832	0
0	5867	5.145260847682	1
0	5871	5.145636847682	0
0	5889	5.146880402233	1
0	5895	5.147256402233	0
0	5942	5.150903661612	1
0	5943	5.151279661612	0
0	5953	5.153992251716	1
0	5954	5.154376251716	0
0	5975	5.157440843288	1
0	5976	5.157816843288	0
0	5998	5.161314620442	1
0	5999	5.161698620442	0
0	6013	5.167847655019	1
0	6014	5.168231655019	0
0	6095	5.176330763878	1
0	6096	5.176706763878	0
0	6155	5.186858612873	1
0	6156	5.187234612873	0
0	6223	5.192990759727	1
0	6228	5.193374759727	0
0	6253	5.197846313058	1
0	6254	5.198230313058	0
0	6258	5.198578757285	1
0	6265	5.198962757285	0
0	6283	5.201904238045	1
0	6284	5.202288238045	0
0	6303	5.207765865414	1
0	6310	5.208149865414	0
0	6310	5.208149865414	1
0	6315	5.208525865414	0
0	6315	5.208525865414	1
0	6322	5.208909865414	0
0	6340	5.21021134666	1
0	6344	5.21059534666	0
0	6433	5.219512381238	1
0	6434	5.219896381238	0
0	6553	5.230498007875	1
0	6555	5.230874007875	0
0	6575	5.233001562427	1
0	6576	5.233377562427	0
0	6603	5.239289412153	1
0	6608	5.239673412153	0
0	6614	5.239685116002	1
0	6616	5.240061116002	0
0	6632	5.240204967437	1
0	6638	5.240580967437	0
0	6678	5.245851928465	1
0	6685	5.246235928465	0
0	6685	5.246235928465	1
0	6686	5.246611928465	0
0	6755	5.255773407758	1
0	6756	5.256149407758	0
0	6763	5.257512072633	1
0	6764	5.257896072633	0
0	6768	5.257907776483	1
0	6777	5.258291776483	0
0	6777	5.258291776483	1
0	6785	5.258675776483	0
0	6809	5.259186443557	1
0	6819	5.259570443557	0
0	6841	5.260435776483	1
0	6843	5.260811776483	0
0	6890	5.266570886075	1
0	6891	5.266946886075	0
0	6930	5.269866885097	1
0	6942	5.270250885097	0
0	6948	5.270490143498	1
0	6963	5.270866143498	0
0	7033	5.285129250161	1
0	7040	5.285513250161	0
0	7067	5.286287916746	1
0	7077	5.286663916746	0
0	7108	5.288303175146	1
0	7113	5.288687175146	0
0	7144	5.289793398236	1
0	7153	5.290169398236	0
0	7166	5.29043739726	1
0	7177	5.29082139726	0
0	7251	5.294586877773	1
0	7260	5.294962877773	0
0	7300	5.299595023651	1
0	7301	5.299979023651	0
0	7424	5.306005984192	1
0	7433	5.306389984192	0
0	7737	5.326275905271	1
0	7755	5.326659905271	0
0	7799	5.328037237709	1
0	7804	5.328413237709	0
0	7835	5.331391163427	1
0	7842	5.331767163427	0
0	7848	5.331775163427	1
0	7860	5.332151163427	0
0	7884	5.333132792017	1
0	7886	5.333516792017	0
0	7915	5.337101235024	1
0	7922	5.337477235024	0
0	8020	5.341769530198	1
0	8021	5.342153530198	0
0	8103	5.35242152678	1
0	8110	5.35280552678	0
0	8184	5.356449970031	1
0	8190	5.356825970031	0
0	8203	5.360785671926	1
0	8204	5.361169671926	0
0	8265	5.368352188727	1
0	8276	5.368728188727	0
0	8276	5.368728188727	1
0	8284	5.369112188727	0
0	8284	5.369112188727	1
0	8291	5.369488188727	0
0	8338	5.375279890378	1
0	8339	5.375663890378	0
0	8405	5.381488778589	1
0	8406	5.381864778589	0
0	8432	5.385201516282	1
0	8438	5.385585516282	0
0	8475	5.386478109806	1
0	8483	5.386854109806	0
0	8507	5.38824714658	1
0	8509	5.38863114658	0
0	8533	5.390111885983	1
0	8542	5.390495885983	0
0	8576	5.3914547004	1
0	8577	5.3918307004	0
0	8671	5.406041511155	1
0	8673	5.406417511155	0
0	8737	5.411472769067	1
0	8741	5.411848769067	0
0	8747	5.411856769067	1
0	8748	5.412232769067	0
0	8797	5.416508323131	1
0	8810	5.416892323131	0
0	8857	5.418280470229	1
0	8865	5.418664470229	0
0	8915	5.423104468277	1
0	8920	5.423480468277	0
0	9005	5.428389801203	1
0	9006	5.428765801203	0
0	9010	5.429053504075	1
0	9014	5.429437504075	0
0	9055	5.432529503831	1
0	9062	5.432905503831	0
0	9249	5.447988315073	1
0	9251	5.448364315073	0
0	9340	5.454141792413	1
0	9344	5.454525792413	0
0	9355	5.455832904447	1
0	9359	5.456216904447	0
0	9425	5.459939272438	1
0	9426	5.460315272438	0
0	9464	5.46421290054	1
0	9472	5.46459690054	0
0	9497	5.465947271707	1
0	9499	5.466323271707	0
0	9519	5.468086677694	1
0	9521	5.468462677694	0
0	9571	5.471564751	1
0	9573	5.471940751	0
0	9605	5.474557638477	1
0	9608	5.474933638477	0
0	9646	5.476201490891	1
0	9648	5.476577490891	0
0	9662	5.481303265847	1
0	9668	5.481687265847	0
0	9767	5.489343264627	1
0	9771	5.489719264627	0
0	9808	5.49485037373	1
0	9811	5.49523437373	0
0	9849	5.497687558336	1
0	9859	5.498071558336	0
0	9859	5.498071558336	1
0	9864	5.498455558336	0
0	9902	5.501012002319	1
0	9904	5.501396002319	0
0	9914	5.501594964324	1
0	9922	5.501970964324	0
0	9929	5.502326371777	1
0	9937	5.502702371777	0
0	9937	5.502702371777	1
0	9941	5.503086371777	0
0	9970	5.506387407086	1
0	9971	5.506763407086	0
0	9985	5.506875703238	1
0	9991	5.507251703238	0
0	10028	5.508307999634	1
0	10039	5.508683999634	0
0	10045	5.508691999634	1
0	10050	5.509067999634	0
0	10129	5.51302562798	1
0	10142	5.51340962798	0
0	10155	5.513726516924	1
0	10166	5.514102516924	0
0	10205	5.517587700063	1
0	10210	5.517963700063	0
0	10220	5.518547404646	1
0	10221	5.518923404646	0
0	10309	5.523144142338	1
0	10317	5.523528142338	0
0	10348	5.525247845942	1
0	10349	5.525631845942	0
0	10367	5.532663843745	1
0	10369	5.533047843745	0
0	10445	5.53675021369	1
0	10446	5.53712621369	0
0	10530	5.539830509598	1
0	10541	5.540214509598	0
0	10555	5.541135248757	1
0	10556	5.541519248757	0
0	10582	5.543162211005	1
0	10594	5.543546211005	0
0	10594	5.543546211005	1
0	10596	5.543922211005	0
0	10684	5.549359541978	1
0	10689	5.549743541978	0
0	10760	5.552078209786	1
0	10765	5.552454209786	0
0	10843	5.556987095798	1
0	10845	5.557363095798	0
0	10862	5.558422502518	1
0	10864	5.558806502518	0
0	10874	5.559032872708	1
0	10882	5.559416872708	0
0	10900	5.560054651082	1
0	10917	5.560438651082	0
0	10925	5.560566502518	1
0	10935	5.560942502518	0
0	10989	5.562573019806	1
0	10991	5.562949019806	0
0	11020	5.565078647908	1
0	11028	5.565462647908	0
0	11110	5.568676721702	1
0	11115	5.569060721702	0
0	11139	5.569561758476	1
0	11142	5.569937758476	0
0	11218	5.575358201726	1
0	11219	5.575742201726	0
0	11426	5.58860323484	1
0	11429	5.58897923484	0
0	11441	5.589089457441	1
0	11453	5.589465457441	0
0	11512	5.592293900936	1
0	11521	5.592669900936	0
0	11560	5.594355382184	1
0	11563	5.594739382184	0
0	11689	5.601954491042	1
0	11705	5.602338491042	0
0	11779	5.60714234199	1
0	11793	5.60751834199	0
0	11919	5.614135523423	1
0	11921	5.614519523423	0
0	11946	5.615825745293	1
0	11949	5.616201745293	0
0	11999	5.618116707053	1
0	12009	5.618492707053	0
0	12026	5.618783967162	1
0	12035	5.619159967162	0
0	12069	5.620921299601	1
0	12071	5.621305299601	0
0	12124	5.623550038515	1
0	12135	5.623934038515	0
0	12171	5.625929445479	1
0	12178	5.626313445479	0
0	12253	5.631603814691	1
0	12254	5.631987814691	0
0	12347	5.634871368755	1
0	12361	5.635247368755	0
0	12361	5.635247368755	1
0	12372	5.635631368755	0
0	12372	5.635631368755	1
0	12379	5.636015368755	0
0	12414	5.638378923796	1
0	12416	5.638754923796	0
0	12446	5.639936404554	1
0	12457	5.640320404554	0
0	12457	5.640320404554	1
0	12461	5.640696404554	0
0	12489	5.642345293252	1
0	12491	5.642729293252	0
0	12515	5.645016107914	1
0	12516	5.645392107914	0
0	12528	5.64637062618	1
0	12535	5.64675462618	0
0	12535	5.64675462618	1
0	12536	5.64713062618	0
0	12540	5.647231365093	1
0	12547	5.647615365093	0
0	12555	5.647933290811	1
0	12565	5.648317290811	0
0	12579	5.649091957396	1
0	12585	5.649475957396	0
0	12723	5.654154919644	1
0	12731	5.654538919644	0
0	12765	5.65699625135	1
0	12769	5.65738025135	0
0	12796	5.658340102542	1
0	12801	5.658724102542	0
0	12825	5.65914025135	1
0	12837	5.65951625135	0
0	12853	5.659835509506	1
0	12871	5.660219509506	0
0	12925	5.663449287637	1
0	12936	5.663825287637	0
0	12955	5.664418916716	1
0	12966	5.664794916716	0
0	12966	5.664794916716	1
0	12968	5.665178916716	0
0	13001	5.666486471022	1
0	13004	5.666862471022	0
0	13018	5.667246471022	1
0	13027	5.667622471022	0
0	13081	5.673659357524	1
0	13087	5.674035357524	0
0	13138	5.676196987825	1
0	13143	5.676572987825	0
0	13313	5.685345873104	1
0	13328	5.685729873104	0
0	13328	5.685729873104	1
0	13337	5.686113873104	0
0	13390	5.687873873104	1
0	13391	5.688249873104	0
0	13422	5.689193278848	1
0	13435	5.689569278848	0
0	13483	5.69199890817	1
0	13488	5.69238290817	0
0	13532	5.69414290817	1
0	13536	5.69451890817	0
0	13547	5.695601129064	1
0	13561	5.695985129064	0
0	13570	5.696395647084	1
0	13593	5.696771647084	0
0	13675	5.700271497788	1
0	13679	5.700655497788	0
0	13758	5.704877719168	1
0	13767	5.705261719168	0
0	13767	5.705261719168	1
0	13772	5.705637719168	0
0	13785	5.705719496812	1
0	13798	5.706103496812	0
0	13829	5.707021719168	1
0	13833	5.707397719168	0
0	13899	5.710432087894	1
0	13901	5.710808087894	0
0	13905	5.710920384045	1
0	13916	5.711304384045	0
0	13990	5.71423312418	1
0	13994	5.71461712418	0
0	14041	5.717924827052	1
0	14055	5.718308827052	0
0	14067	5.718763640981	1
0	14088	5.719147640981	0
0	14129	5.719986454909	1
0	14140	5.720370454909	0
0	14140	5.720370454909	1
0	14148	5.720746454909	0
0	14169	5.720907640981	1
0	14175	5.721283640981	0
0	14182	5.72166497293	1
0	14189	5.72204897293	0
0	14207	5.722647196021	1
0	14210	5.723031196021	0
0	14217	5.723372972687	1
0	14239	5.723748972687	0
0	14313	5.726881564501	1
0	14320	5.727265564501	0
0	14325	5.727644527239	1
0	14339	5.728028527239	0
0	14349	5.728405416424	1
0	14364	5.728789416424	0
0	14379	5.72926200824	1
0	14401	5.72963800824	0
0	14514	5.731767636342	1
0	14538	5.732143636342	0
0	14582	5.732758896207	1
0	14599	5.733134896207	0
0	14729	5.73969933848	1
0	14731	5.74007533848	0
0	14737	5.74008333848	1
0	14744	5.74045933848	0
0	14762	5.741743041841	1
0	14768	5.742127041841	0
0	14876	5.744887485091	1
0	14878	5.745263485091	0
0	14884	5.745271485091	1
0	14898	5.745647485091	0
0	14937	5.747083780999	1
0	14945	5.747467780999	0
0	15038	5.750930149968	1
0	15049	5.751306149968	0
0	15055	5.751314149968	1
0	15060	5.751690149968	0
0	15083	5.752322297554	1
0	15084	5.752706297554	0
0	15096	5.752766891324	1
0	15102	5.753142891324	0
0	15102	5.753142891324	1
0	15109	5.753526891324	0
0	15157	5.755323778558	1
0	15158	5.755699778558	0
0	15180	5.756430149237	1
0	15194	5.756814149237	0
0	15200	5.757309555223	1
0	15221	5.757693555223	0
0	15221	5.757693555223	1
0	15230	5.758069555223	0
0	15257	5.758574149237	1
0	15270	5.758950149237	0
0	15308	5.75987311002	1
0	15319	5.76025711002	0
0	15319	5.76025711002	1
0	15339	5.76063311002	0
0	15339	5.76063311002	1
0	15353	5.76101711002	0
0	15365	5.761401109043	1
0	15390	5.761785109043	0
0	15542	5.767411181861	1
0	15554	5.767787181861	0
0	15571	5.768539329935	1
0	15573	5.768915329935	0
0	15603	5.770184219124	1
0	15612	5.770560219124	0
0	15636	5.771343922484	1
0	15653	5.771727922484	0
0	15686	5.772538291452	1
0	15706	5.772914291452	0
0	15731	5.773637994568	1
0	15742	5.774013994568	0
0	15765	5.774888216682	1
0	15772	5.775264216682	0
0	15787	5.775788957793	1
0	15799	5.776172957793	0
0	15827	5.776809846004	1
0	15836	5.777185846004	0
0	15854	5.777694882778	1
0	15863	5.778078882778	0
0	15867	5.778200956817	1
0	15881	5.778584956817	0
0	15997	5.784406881313	1
0	16007	5.784782881313	0
0	16013	5.784790881313	1
0	16015	5.785166881313	0
0	16021	5.785233991394	1
0	16038	5.785609991394	0
0	16066	5.786541103429	1
0	16068	5.786917103429	0
0	16082	5.787584953399	1
0	16088	5.787968953399	0
0	16138	5.78906554619	1
0	16162	5.78944154619	0
0	16162	5.78944154619	1
0	16174	5.78982554619	0
0	16233	5.791093545213	1
0	16243	5.791469545213	0
0	16243	5.791469545213	1
0	16256	5.791853545213	0
0	16344	5.795268360362	1
0	16350	5.795644360362	0
0	16357	5.79600702524	1
0	16361	5.79638302524	0
0	16447	5.800032358165	1
0	16452	5.800416358165	0
0	16613	5.804438874966	1
0	16626	5.804822874966	0
0	16652	5.805925540819	1
0	16654	5.806301540819	0
0	16699	5.807743910765	1
0	16723	5.808127910765	0
0	16756	5.808730280954	1
0	16787	5.809114280954	0
0	16787	5.809114280954	1
0	16807	5.809498280954	0
0	16807	5.809498280954	1
0	16831	5.809874280954	0
0	16881	5.811599910029	1
0	16888	5.811983910029	0
0	16894	5.812212353771	1
0	16908	5.812588353771	0
0	16989	5.816515463607	1
0	16999	5.816899463607	0
0	17041	5.818347610951	1
0	17058	5.818731610951	0
0	17058	5.818731610951	1
0	17067	5.819107610951	0
0	17091	5.819903018159	1
0	17094	5.820279018159	0
0	17106	5.82066701767	1
0	17119	5.82104301767	0
0	17152	5.821856202765	1
0	17161	5.822232202765	0
0	17181	5.822742276315	1
0	17190	5.823126276315	0
0	17190	5.823126276315	1
0	17194	5.823510276315	0
0	17248	5.82917857149	1
0	17249	5.82956257149	0
0	17301	5.832357680349	1
0	17314	5.832741680349	0
0	17416	5.834668940457	1
0	17431	5.835052940457	0
0	17477	5.836794569048	1
0	17483	5.837178569048	0
0	17502	5.837860495743	1
0	17505	5.838236495743	0
0	17509	5.838336197883	1
0	17516	5.838720197883	0
0	17552	5.840015752677	1
0	17560	5.840391752677	0
0	17586	5.841174419264	1
0	17592	5.841550419264	0
0	17598	5.841558419264	1
0	17611	5.841934419264	0
0	17611	5.841934419264	1
0	17626	5.842318419264	0
0	17715	5.844165233192	1
0	17725	5.844549233192	0
0	17768	5.845400641134	1
0	17783	5.845776641134	0
0	17803	5.846959158666	1
0	17820	5.847343158666	0
0	17820	5.847343158666	1
0	17823	5.847727158666	0
0	17840	5.847947454818	1
0	17855	5.848323454818	0
0	17861	5.848331454818	1
0	17876	5.848707454818	0
0	17876	5.848707454818	1
0	17895	5.849091454818	0
0	17932	5.84984063918	1
0	17935	5.85022463918	0
0	17961	5.850786712974	1
0	17967	5.851170712974	0
0	17991	5.85198463918	1
0	18003	5.85236063918	0
0	18017	5.853012490616	1
0	18021	5.853388490616	0
0	18042	5.854956044924	1
0	18060	5.855340044924	0
0	18060	5.855340044924	1
0	18063	5.855716044924	0
0	18156	5.858448932401	1
0	18163	5.858832932401	0
0	18172	5.859055155491	1
0	18182	5.859431155491	0
0	18233	5.861039895383	1
0	18235	5.861415895383	0
0	18241	5.861423895383	1
0	18259	5.861799895383	0
0	18330	5.863729671316	1
0	18339	5.864105671316	0
0	18349	5.864354709068	1
0	18378	5.864730709068	0
0	18378	5.864730709068	1
0	18394	5.865114709068	0
0	18426	5.865474857143	1
0	18449	5.865850857143	0
0	18456	5.865952338632	1
0	18470	5.866328338632	0
0	18476	5.866336338632	1
0	18503	5.866712338632	0
0	18589	5.86870418836	1
0	18604	5.86908818836	0
0	18604	5.86908818836	1
0	18612	5.86947218836	0
0	18718	5.872623299173	1
0	18721	5.873007299173	0
0	18727	5.873215743889	1
0	18737	5.873591743889	0
0	18745	5.874195446515	1
0	18761	5.874579446515	0
0	18797	5.87544566863	1
0	18801	5.87582166863	0
0	18807	5.875916334483	1
0	18819	5.876292334483	0
0	18828	5.876325669118	1
0	18837	5.876709669118	0
0	18887	5.877918704672	1
0	18904	5.878294704672	0
0	18943	5.878851001069	1
0	18964	5.879235001069	0
0	18964	5.879235001069	1
0	18967	5.879611001069	0
0	19005	5.880420185675	1
0	19029	5.880804185675	0
0	19029	5.880804185675	1
0	19046	5.881188185675	0
0	19046	5.881188185675	1
0	19069	5.881564185675	0
0	19069	5.881564185675	1
0	19086	5.881940185675	0
0	19173	5.884357073397	1
0	19184	5.884733073397	0
0	19226	5.886318999115	1
0	19234	5.886694999115	0
0	19600	5.90367425312	1
0	19609	5.90405825312	0
0	19647	5.904622400464	1
0	19663	5.904998400464	0
0	19688	5.905392030763	1
0	19702	5.905768030763	0
0	19712	5.905870549027	1
0	19731	5.906254549027	0
1	0	0	0
1	11	1.141453291421	1
1	12	1.141861291421	0
1	24	1.143269291421	1
1	25	1.143653291421	0
1	308	2.280781043001	1
1	309	2.281189043001	0
1	323	2.282573043001	1
1	326	2.282949043001	0
1	417	3.131809442427	1
1	418	3.132193442427	0
1	439	3.1983082378	1
1	440	3.1986842378	0
1	537	3.591691824946	1
1	538	3.592075824946	0
1	649	3.861931152806	1
1	650	3.862307152806	0
1	657	3.866508929227	1
1	658	3.866892929227	0
1	679	3.877159889035	1
1	680	3.877535889035	0
1	709	3.896842254097	1
1	710	3.897218254097	0
1	747	3.926447281839	1
1	748	3.926831281839	0
1	777	3.936733056307	1
1	778	3.937117056307	0
1	837	3.952113348308	1
1	838	3.952497348308	0
1	852	3.957665643483	1
1	853	3.958049643483	0
1	979	4.02218280929	1
1	980	4.02255880929	0
1	1009	4.028135992187	1
1	1010	4.028511992187	0
1	1032	4.064606647786	1
1	1033	4.064990647786	0
1	1082	4.078430495804	1
1	1083	4.078814495804	0
1	1129	4.08825434553	1
1	1130	4.08863034553	0
1	1234	4.121246927823	1
1	1235	4.121622927823	0
1	1249	4.134643516709	1
1	1250	4.135019516709	0
1	1279	4.15588336253	1
1	1280	4.15625936253	0
1	1294	4.170351209571	1
1	1295	4.170727209571	0
1	1324	4.191957277505	1
1	1325	4.192333277505	0
1	1359	4.212832974761	1
1	1363	4.213216974761	0
1	1437	4.242620076784	1
1	1438	4.243004076784	0
1	1452	4.24756200177	1
1	1453	4.24794600177	0
1	1489	4.261723626941	1
1	1490	4.262099626941	0
1	1504	4.275637993713	1
1	1505	4.276013993713	0
1	1539	4.284584064089	1
1	1543	4.284968064089	0
1	1603	4.316839018281	1
1	1604	4.317223018281	0
1	1633	4.326210274239	1
1	1634	4.326594274239	0
1	1697	4.349736934721	1
1	1699	4.350120934721	0
1	1705	4.350254712607	1
1	1712	4.350630712607	0
1	1730	4.360970856533	1
1	1731	4.361346856533	0
1	1783	4.392099736198	1
1	1784	4.392483736198	0
1	1820	4.401707882809	1
1	1821	4.402083882809	0
1	1918	4.424753504563	1
1	1919	4.425137504563	0
1	1963	4.438730981903	1
1	1964	4.439114981903	0
1	2000	4.44822223835	1
1	2001	4.44859823835	0
1	2098	4.469645195227	1
1	2099	4.470029195227	0
1	2113	4.476145637746	1
1	2114	4.476529637746	0
1	2165	4.488780300668	1
1	2166	4.489156300668	0
1	2270	4.504679407331	1
1	2271	4.505055407331	0
1	2278	4.511181923399	1
1	2279	4.511565923399	0
1	2308	4.517528736595	1
1	2317	4.517912736595	0
1	2331	4.518567402691	1
1	2339	4.518943402691	0
1	2360	4.522563253884	1
1	2361	4.522939253884	0
1	2379	4.52741777044	1
1	2385	4.52779377044	0
1	2413	4.53962310068	1
1	2414	4.54000710068	0
1	2465	4.56879879574	1
1	2466	4.56917479574	0
1	2495	4.576643089449	1
1	2496	4.577019089449	0
1	2510	4.580244273568	1
1	2515	4.580620273568	0
1	2540	4.588208567765	1
1	2541	4.588584567765	0
1	2552	4.58998367858	1
1	2554	4.59036767858	0
1	2612	4.600934786218	1
1	2618	4.601318786218	0
1	2625	4.601792414808	1
1	2638	4.602168414808	0
1	2653	4.608411821039	1
1	2654	4.608795821039	0
1	2863	4.670027654896	1
1	2864	4.670411654896	0
1	2898	4.679232540911	1
1	2905	4.679616540911	0
1	2938	4.687395797113	1
1	2939	4.687779797113	0
1	2960	4.689539797113	1
1	2961	4.689915797113	0
1	2975	4.691847352397	1
1	2976	4.692223352397	0
1	3005	4.705163200416	1
1	3006	4.705539200416	0
1	3095	4.737534597858	1
1	3096	4.737910597858	0
1	3200	4.756702295358	1
1	3201	4.757078295358	0
1	3230	4.76796258858	1
1	3231	4.76833858858	0
1	3238	4.770320218147	1
1	3239	4.770704218147	0
1	3268	4.780904510148	1
1	3269	4.781288510148	0
1	3298	4.792988803125	1
1	3299	4.793372803125	0
1	3453	4.816150278268	1
1	3464	4.816534278268	0
1	3464	4.816534278268	1
1	3466	4.816918278268	0
1	3560	4.837391160863	1
1	3561	4.837767160863	0
1	3575	4.8392812349	1
1	3576	4.8396572349	0
1	3628	4.86461678164	1
1	3629	4.86500078164	0
1	3655	4.866980337658	1
1	3662	4.867356337658	0
1	3680	4.872122261422	1
1	3681	4.872498261422	0
1	3695	4.874988927763	1
1	3704	4.875364927763	0
1	3749	4.882802702964	1
1	3754	4.883186702964	0
1	3816	4.885457813288	1
1	3821	4.885841813288	0
1	3849	4.889549367107	1
1	3851	4.889925367107	0
1	3890	4.893115885616	1
1	3895	4.893491885616	0
1	3928	4.898338697836	1
1	3929	4.898722697836	0
1	4010	4.912101508836	1
1	4011	4.912477508836	0
1	4033	4.915275433821	1
1	4034	4.915659433821	0
1	4089	4.920065803034	1
1	4091	4.920441803034	0
1	4233	4.939141945006	1
1	4240	4.939525945006	0
1	4277	4.943960759178	1
1	4278	4.944336759178	0
1	4288	4.945825498581	1
1	4289	4.946209498581	0
1	4370	4.968832307626	1
1	4375	4.969208307626	0
1	4453	4.974179267434	1
1	4456	4.974563267434	0
1	4555	4.987328597919	1
1	4562	4.987704597919	0
1	4567	4.987788449111	1
1	4568	4.988172449111	0
1	4614	4.995662224555	1
1	4616	4.996046224555	0
1	4629	4.996695706778	1
1	4631	4.997079706778	0
1	4723	5.011561331218	1
1	4724	5.011945331218	0
1	4746	5.013268294199	1
1	4755	5.013652294199	0
1	4850	5.023340439101	1
1	4851	5.023716439101	0
1	4926	5.029813473434	1
1	4928	5.030197473434	0
1	5068	5.046901765191	1
1	5073	5.047285765191	0
1	5158	5.057611688467	1
1	5159	5.057995688467	0
1	5173	5.05978057619	1
1	5174	5.06016457619	0
1	5260	5.072930943449	1
1	5265	5.073306943449	0
1	5272	5.073693906187	1
1	5276	5.074069906187	0
1	5282	5.074077906187	1
1	5283	5.074453906187	0
1	5360	5.085477161169	1
1	5361	5.085853161169	0
1	5402	5.093135233498	1
1	5408	5.093519233498	0
1	5443	5.095091528428	1
1	5444	5.095475528428	0
1	5503	5.109648857448	1
1	5504	5.110032857448	0
1	5537	5.111792857448	1
1	5545	5.112168857448	0
1	5570	5.114653893002	1
1	5571	5.115029893002	0
1	5639	5.118406632892	1
1	5647	5.118782632892	0
1	5684	5.128901889829	1
1	5689	5.129285889829	0
1	5718	5.130307814814	1
1	5724	5.130683814814	0
1	5765	5.132414628741	1
1	5768	5.132798628741	0
1	5990	5.158781584155	1
1	5991	5.159157584155	0
1	6036	5.16927891464	1
1	6041	5.16966291464	0
1	6065	5.174385283609	1
1	6070	5.174761283609	0
1	6108	5.177579949216	1
1	6115	5.177963949216	0
1	6115	5.177963949216	1
1	6120	5.178339949216	0
1	6168	5.188449722465	1
1	6175	5.188833722465	0
1	6212	5.190743204688	1
1	6213	5.191119204688	0
1	6403	5.215607048799	1
1	6404	5.215991048799	0
1	6448	5.222414749962	1
1	6453	5.222798749962	0
1	6498	5.225984378796	1
1	6505	5.226368378796	0
1	6540	5.230042303782	1
1	6541	5.230418303782	0
1	6665	5.244935336405	1
[...]
381	9316	5.45233009003	45560
381	9549	5.470457047884	46096
381	9576	5.472290232002	46632
381	9640	5.476011416609	47168
381	9651	5.476711268776	47704
381	9719	5.483211711295	48240
381	9770	5.489680598529	48776
381	9804	5.494843410505	49312
381	9831	5.496260892728	49848
381	9862	5.498229928281	50384
381	10133	5.513168146978	50920
381	10158	5.513759702505	51456
381	10169	5.514143702505	51992
381	10173	5.514527702505	52528
381	10435	5.535919250709	53064
381	10439	5.536309770683	53600
381	10500	5.538940583149	54136
381	10629	5.545168286021	54672
381	10668	5.548924136236	55208
381	10728	5.550722801355	55744
381	10747	5.551482801355	56280
381	10806	5.554718652547	56816
381	10851	5.557621021272	57352
381	10975	5.561981021027	57888
381	11009	5.564302501298	58424
381	11027	5.565182354199	58960
381	11166	5.571046055115	59496
381	11169	5.571430055115	60032
381	11208	5.573424425306	60568
381	11214	5.573808425306	61104
381	11249	5.579620719504	61640
381	11291	5.582165607226	62176
381	11314	5.583530199042	62712
381	11383	5.587618642537	63248
381	11460	5.589801161045	63784
381	11531	5.592895234352	64320
381	11541	5.593279234352	64856
381	11544	5.593663234352	65392
381	11619	5.598377898985	65928
381	11719	5.602733009064	66464
381	11732	5.603117009064	67000
381	11876	5.610689598926	67536
381	11977	5.617560264046	68072
381	12078	5.621674188788	68608
381	12133	5.623838929411	69144
381	12151	5.624667076266	69680
381	12246	5.628817593555	70216
381	12306	5.634185740899	70752
381	12355	5.635133888241	71288
381	12371	5.635563220923	71824
381	12450	5.640097738212	72360
381	12634	5.650949586963	72896
381	12681	5.652305142003	73432
381	12704	5.653111363872	73968
381	12727	5.654255363872	74504
381	12842	5.65964025135	75040
381	12978	5.665652397717	75576
381	13059	5.671195062594	76112
381	13141	5.67621491232	76648
381	13262	5.683141577197	77184
381	13279	5.68380780053	77720
381	13363	5.686679650746	78256
381	13426	5.689213723808	78792
381	13448	5.690069278848	79328
381	13624	5.697467352155	79864
381	13664	5.699250166326	80400
381	13934	5.711856384288	80936
381	14157	5.720845567186	81472
381	14178	5.721650752282	82008
381	14309	5.726729713064	82544
381	14334	5.727773268837	83080
381	14474	5.731115637319	83616
381	14588	5.732810896451	84152
381	14639	5.734504228644	84688
381	14694	5.737191931029	85224
381	14850	5.744268078128	85760
381	14925	5.746684077639	86296
381	14984	5.748690299265	86832
381	15304	5.759860962919	87368
381	15470	5.764199775139	87904
381	15536	5.767246589801	88440
381	15549	5.767630589801	88976
381	15632	5.771202144597	89512
381	15648	5.771614736167	90048
381	15847	5.777567919065	90584
381	15862	5.778056662129	91120
381	15929	5.78084006714	91656
381	16004	5.784609548142	92192
381	16060	5.786352065918	92728
381	16214	5.790418138494	93264
381	16219	5.790802138494	93800
381	16236	5.791186138494	94336
381	16280	5.79262613825	94872
381	16330	5.794642433424	95408
381	16401	5.798285839901	95944
381	16416	5.798669839901	96480
381	16541	5.802353542773	97016
381	16557	5.802737542773	97552
381	16585	5.803497542773	98088
381	16731	5.808356948027	98624
381	16759	5.808740948027	99160
381	16849	5.810119911741	99696
381	16860	5.810495911741	100232
381	16927	5.813354873744	100768
381	16938	5.813738873744	101304
381	17076	5.81928257442	101840
381	17174	5.822487017915	102376
381	17189	5.822972203741	102912
381	17296	5.832312941191	103448
381	17390	5.83405456978	103984
381	17429	5.834956347667	104520
381	17891	5.848852936552	105056
381	17920	5.849588491104	105592
381	18097	5.856700340587	106128
381	18175	5.859109229285	106664
381	18305	5.8632587098	107200
381	18319	5.8636427098	107736
381	18448	5.865841079256	108272
381	18558	5.867733226843	108808
381	18645	5.870289818415	109344
381	18693	5.871652336681	109880
381	18817	5.876154261911	110416
381	18916	5.878365371992	110952
381	18963	5.879191445296	111488
381	18986	5.879741815241	112024
381	19034	5.880949814996	112560
381	19148	5.883482851283	113096
381	19188	5.88491100058	113632
381	19198	5.88529500058	114168
381	19238	5.886758998871	114704
381	19330	5.891009219275	115240
381	19519	5.899544180791	115776
381	19574	5.902141364421	116312
381	19708	5.905865659352	116848
382	329	2.283449043001	4294967295
382	443	3.1991842378	4294967295
382	653	3.862807152806	4294967295
382	683	3.878035889035	4294967295
382	713	3.897718254097	4294967295
382	983	4.02305880929	4294967295
382	1013	4.029011992187	4294967295
382	1133	4.08913034553	4294967295
382	1238	4.122122927823	4294967295
382	1253	4.135519516709	4294967295
382	1283	4.15675936253	4294967295
382	1298	4.171227209571	4294967295
382	1328	4.192833277505	4294967295
382	1493	4.262599626941	4294967295
382	1508	4.276513993713	4294967295
382	1716	4.351130712607	4294967295
382	1734	4.361846856533	4294967295
382	1824	4.402583882809	4294967295
382	2004	4.44909823835	4294967295
382	2169	4.489656300668	4294967295
382	2274	4.505555407331	4294967295
382	2346	4.519443402691	4294967295
382	2364	4.523439253884	4294967295
382	2395	4.52829377044	4294967295
382	2469	4.56967479574	4294967295
382	2499	4.577519089449	4294967295
382	2519	4.581120273568	4294967295
382	2544	4.589084567765	4294967295
382	2643	4.602668414808	4294967295
382	2964	4.690415797113	4294967295
382	2979	4.692723352397	4294967295
382	3009	4.706039200416	4294967295
382	3099	4.738410597858	4294967295
382	3204	4.757578295358	4294967295
382	3234	4.76883858858	4294967295
382	3564	4.838267160863	4294967295
382	3579	4.8401572349	4294967295
382	3666	4.867856337658	4294967295
382	3684	4.872998261422	4294967295
382	3709	4.875864927763	4294967295
382	3860	4.890425367107	4294967295
382	3899	4.893991885616	4294967295
382	4014	4.912977508836	4294967295
382	4100	4.920941803034	4294967295
382	4284	4.944836759178	4294967295
382	4383	4.969708307626	4294967295
382	4571	4.988204597919	4294967295
382	4859	5.024216439101	4294967295
382	5275	5.073806943449	4294967295
382	5286	5.074569906187	4294967295
382	5293	5.074953906187	4294967295
382	5364	5.086353161169	4294967295
382	5549	5.112668857448	4294967295
382	5578	5.115529893002	4294967295
382	5657	5.119282632892	4294967295
382	5739	5.131183814814	4294967295
382	5994	5.159657584155	4294967295
382	6074	5.175261283609	4294967295
382	6131	5.178839949216	4294967295
382	6219	5.191619204688	4294967295
382	6558	5.230918303782	4294967295
382	6674	5.245811336405	4294967295
382	6879	5.263970886319	4294967295
382	6956	5.270549106968	4294967295
382	7014	5.282844955962	4294967295
382	7049	5.285761102085	4294967295
382	7076	5.286584065065	4294967295
382	7151	5.290153693899	4294967295
382	7180	5.291126139103	4294967295
382	7199	5.291679619373	4294967295
382	7402	5.305016208013	4294967295
382	7416	5.305776208013	4294967295
382	7457	5.30757768926	4294967295
382	7464	5.308106281809	4294967295
382	7573	5.317405686087	4294967295
382	7650	5.321589832209	4294967295
382	7874	5.332697532884	4294967295
382	7889	5.333856199468	4294967295
382	8016	5.341686715781	4294967295
382	8330	5.374356335094	4294967295
382	8383	5.378012335581	4294967295
382	8486	5.386865813654	4294967295
382	8869	5.418698692586	4294967295
382	9316	5.45233009003	4294967295
382	9549	5.470457047884	4294967295
382	9576	5.472290232002	4294967295
382	9640	5.476011416609	4294967295
382	9651	5.476711268776	4294967295
382	9719	5.483211711295	4294967295
382	9770	5.489680598529	4294967295
382	9804	5.494843410505	4294967295
382	9831	5.496260892728	4294967295
382	9862	5.498229928281	4294967295
382	10133	5.513168146978	4294967295
382	10158	5.513759702505	4294967295
382	10169	5.514143702505	4294967295
382	10173	5.514527702505	4294967295
382	10435	5.535919250709	4294967295
382	10439	5.536309770683	4294967295
382	10500	5.538940583149	4294967295
382	10629	5.545168286021	4294967295
382	10668	5.548924136236	4294967295
382	10728	5.550722801355	4294967295
382	10747	5.551482801355	4294967295
382	10806	5.554718652547	4294967295
382	10851	5.557621021272	4294967295
382	10975	5.561981021027	4294967295
382	11009	5.564302501298	4294967295
382	11027	5.565182354199	4294967295
382	11166	5.571046055115	4294967295
382	11169	5.571430055115	4294967295
382	11208	5.573424425306	4294967295
382	11214	5.573808425306	4294967295
382	11249	5.579620719504	4294967295
382	11291	5.582165607226	4294967295
382	11314	5.583530199042	4294967295
382	11383	5.587618642537	4294967295
382	11460	5.589801161045	4294967295
382	11531	5.592895234352	4294967295
382	11541	5.593279234352	4294967295
382	11544	5.593663234352	4294967295
382	11619	5.598377898985	4294967295
382	11719	5.602733009064	4294967295
382	11732	5.603117009064	4294967295
382	11876	5.610689598926	4294967295
382	11977	5.617560264046	4294967295
382	12078	5.621674188788	4294967295
382	12133	5.623838929411	4294967295
382	12151	5.624667076266	4294967295
382	12246	5.628817593555	4294967295
382	12306	5.634185740899	4294967295
382	12355	5.635133888241	4294967295
382	12371	5.635563220923	4294967295
382	12450	5.640097738212	4294967295
382	12634	5.650949586963	4294967295
382	12681	5.652305142003	4294967295
382	12704	5.653111363872	4294967295
382	12727	5.654255363872	4294967295
382	12842	5.65964025135	4294967295
382	12978	5.665652397717	4294967295
382	13059	5.671195062594	4294967295
382	13141	5.67621491232	4294967295
382	13262	5.683141577197	4294967295
382	13279	5.68380780053	4294967295
382	13363	5.686679650746	4294967295
382	13426	5.689213723808	4294967295
382	13448	5.690069278848	4294967295
382	13624	5.697467352155	4294967295
382	13664	5.699250166326	4294967295
382	13934	5.711856384288	4294967295
382	14157	5.720845567186	4294967295
382	14178	5.721650752282	4294967295
382	14309	5.726729713064	4294967295
382	14334	5.727773268837	4294967295
382	14474	5.731115637319	4294967295
382	14588	5.732810896451	4294967295
382	14639	5.734504228644	4294967295
382	14694	5.737191931029	4294967295
382	14850	5.744268078128	4294967295
382	14925	5.746684077639	4294967295
382	14984	5.748690299265	4294967295
382	15304	5.759860962919	4294967295
382	15470	5.764199775139	4294967295
382	15536	5.767246589801	4294967295
382	15549	5.767630589801	4294967295
382	15632	5.771202144597	4294967295
382	15648	5.771614736167	4294967295
382	15847	5.777567919065	4294967295
382	15862	5.778056662129	4294967295
382	15929	5.78084006714	4294967295
382	16004	5.784609548142	4294967295
382	16060	5.786352065918	4294967295
382	16214	5.790418138494	4294967295
382	16219	5.790802138494	4294967295
382	16236	5.791186138494	4294967295
382	16280	5.79262613825	4294967295
382	16330	5.794642433424	4294967295
382	16401	5.798285839901	4294967295
382	16416	5.798669839901	4294967295
382	16541	5.802353542773	4294967295
382	16557	5.802737542773	4294967295
382	16585	5.803497542773	4294967295
382	16731	5.808356948027	4294967295
382	16759	5.808740948027	4294967295
382	16849	5.810119911741	4294967295
382	16860	5.810495911741	4294967295
382	16927	5.813354873744	4294967295
382	16938	5.813738873744	4294967295
382	17076	5.81928257442	4294967295
382	17174	5.822487017915	4294967295
382	17189	5.822972203741	4294967295
382	17296	5.832312941191	4294967295
382	17390	5.83405456978	4294967295
382	17429	5.834956347667	4294967295
382	17891	5.848852936552	4294967295
382	17920	5.849588491104	4294967295
382	18097	5.856700340587	4294967295
382	18175	5.859109229285	4294967295
382	18305	5.8632587098	4294967295
382	18319	5.8636427098	4294967295
382	18448	5.865841079256	4294967295
382	18558	5.867733226843	4294967295
382	18645	5.870289818415	4294967295
382	18693	5.871652336681	4294967295
382	18817	5.876154261911	4294967295
382	18916	5.878365371992	4294967295
382	18963	5.879191445296	4294967295
382	18986	5.879741815241	4294967295
382	19034	5.880949814996	4294967295
382	19148	5.883482851283	4294967295
382	19188	5.88491100058	4294967295
382	19198	5.88529500058	4294967295
382	19238	5.886758998871	4294967295
382	19330	5.891009219275	4294967295
382	19519	5.899544180791	4294967295
382	19574	5.902141364421	4294967295
382	19708	5.905865659352	4294967295
383	329	2.283449043001	0
383	443	3.1991842378	0
383	653	3.862807152806	0
383	683	3.878035889035	0
383	713	3.897718254097	0
383	983	4.02305880929	0
383	1013	4.029011992187	0
383	1133	4.08913034553	0
383	1238	4.122122927823	0
383	1253	4.135519516709	0
383	1283	4.15675936253	0
383	1298	4.171227209571	0
383	1328	4.192833277505	0
383	1493	4.262599626941	0
383	1508	4.276513993713	0
383	1716	4.351130712607	0
383	1734	4.361846856533	0
383	1824	4.402583882809	0
383	2004	4.44909823835	0
383	2169	4.489656300668	0
383	2274	4.505555407331	0
383	2346	4.519443402691	0
383	2364	4.523439253884	0
383	2395	4.52829377044	0
383	2469	4.56967479574	0
383	2499	4.577519089449	0
383	2519	4.581120273568	0
383	2544	4.589084567765	0
383	2643	4.602668414808	0
383	2964	4.690415797113	0
383	2979	4.692723352397	0
383	3009	4.706039200416	0
383	3099	4.738410597858	0
383	3204	4.757578295358	0
383	3234	4.76883858858	0
383	3564	4.838267160863	0
383	3579	4.8401572349	0
383	3666	4.867856337658	0
383	3684	4.872998261422	0
383	3709	4.875864927763	0
383	3860	4.890425367107	0
383	3899	4.893991885616	0
383	4014	4.912977508836	0
383	4100	4.920941803034	0
383	4284	4.944836759178	0
383	4383	4.969708307626	0
383	4571	4.988204597919	0
383	4859	5.024216439101	0
383	5275	5.073806943449	0
383	5286	5.074569906187	0
383	5293	5.074953906187	0
383	5364	5.086353161169	0
383	5549	5.112668857448	0
383	5578	5.115529893002	0
383	5657	5.119282632892	0
383	5739	5.131183814814	0
383	5994	5.159657584155	0
383	6074	5.175261283609	0
383	6131	5.178839949216	0
383	6219	5.191619204688	0
383	6558	5.230918303782	0
383	6674	5.245811336405	0
383	6879	5.263970886319	0
383	6956	5.270549106968	0
383	7014	5.282844955962	0
383	7049	5.285761102085	0
383	7076	5.286584065065	0
383	7151	5.290153693899	0
383	7180	5.291126139103	0
383	7199	5.291679619373	0
383	7402	5.305016208013	0
383	7416	5.305776208013	0
383	7457	5.30757768926	0
383	7464	5.308106281809	0
383	7573	5.317405686087	0
383	7650	5.321589832209	0
383	7874	5.332697532884	0
383	7889	5.333856199468	0
383	8016	5.341686715781	0
383	8330	5.374356335094	0
383	8383	5.378012335581	0
383	8486	5.386865813654	0
383	8869	5.418698692586	0
383	9316	5.45233009003	0
383	9549	5.470457047884	0
383	9576	5.472290232002	0
383	9640	5.476011416609	0
383	9651	5.476711268776	0
383	9719	5.483211711295	0
383	9770	5.489680598529	0
383	9804	5.494843410505	0
383	9831	5.496260892728	0
383	9862	5.498229928281	0
383	10133	5.513168146978	0
383	10158	5.513759702505	0
383	10169	5.514143702505	0
383	10173	5.514527702505	0
383	10435	5.535919250709	0
383	10439	5.536309770683	0
383	10500	5.538940583149	0
383	10629	5.545168286021	0
383	10668	5.548924136236	0
383	10728	5.550722801355	0
383	10747	5.551482801355	0
383	10806	5.554718652547	0
383	10851	5.557621021272	0
383	10975	5.561981021027	0
383	11009	5.564302501298	0
383	11027	5.565182354199	0
383	11166	5.571046055115	0
383	11169	5.571430055115	0
383	11208	5.573424425306	0
383	11214	5.573808425306	0
383	11249	5.579620719504	0
383	11291	5.582165607226	0
383	11314	5.583530199042	0
383	11383	5.587618642537	0
383	11460	5.589801161045	0
383	11531	5.592895234352	0
383	11541	5.593279234352	0
383	11544	5.593663234352	0
383	11619	5.598377898985	0
383	11719	5.602733009064	0
383	11732	5.603117009064	0
383	11876	5.610689598926	0
383	11977	5.617560264046	0
383	12078	5.621674188788	0
383	12133	5.623838929411	0
383	12151	5.624667076266	0
383	12246	5.628817593555	0
383	12306	5.634185740899	0
383	12355	5.635133888241	0
383	12371	5.635563220923	0
383	12450	5.640097738212	0
383	12634	5.650949586963	0
383	12681	5.652305142003	0
383	12704	5.653111363872	0
383	12727	5.654255363872	0
383	12842	5.65964025135	0
383	12978	5.665652397717	0
383	13059	5.671195062594	0
383	13141	5.67621491232	0
383	13262	5.683141577197	0
383	13279	5.68380780053	0
383	13363	5.686679650746	0
383	13426	5.689213723808	0
383	13448	5.690069278848	0
383	13624	5.697467352155	0
383	13664	5.699250166326	0
383	13934	5.711856384288	0
383	14157	5.720845567186	0
383	14178	5.721650752282	0
383	14309	5.726729713064	0
383	14334	5.727773268837	0
383	14474	5.731115637319	0
383	14588	5.732810896451	0
383	14639	5.734504228644	0
383	14694	5.737191931029	0
383	14850	5.744268078128	0
383	14925	5.746684077639	0
383	14984	5.748690299265	0
383	15304	5.759860962919	0
383	15470	5.764199775139	0
383	15536	5.767246589801	0
383	15549	5.767630589801	0
383	15632	5.771202144597	0
383	15648	5.771614736167	0
383	15847	5.777567919065	0
383	15862	5.778056662129	0
383	15929	5.78084006714	0
383	16004	5.784609548142	0
383	16060	5.786352065918	0
383	16214	5.790418138494	0
383	16219	5.790802138494	0
383	16236	5.791186138494	0
383	16280	5.79262613825	0
383	16330	5.794642433424	0
383	16401	5.798285839901	0
383	16416	5.798669839901	0
383	16541	5.802353542773	0
383	16557	5.802737542773	0
383	16585	5.803497542773	0
383	16731	5.808356948027	0
383	16759	5.808740948027	0
383	16849	5.810119911741	0
383	16860	5.810495911741	0
383	16927	5.813354873744	0
383	16938	5.813738873744	0
383	17076	5.81928257442	0
383	17174	5.822487017915	0
383	17189	5.822972203741	0
383	17296	5.832312941191	0
383	17390	5.83405456978	0
383	17429	5.834956347667	0
383	17891	5.848852936552	0
383	17920	5.849588491104	0
383	18097	5.856700340587	0
383	18175	5.859109229285	0
383	18305	5.8632587098	0
383	18319	5.8636427098	0
383	18448	5.865841079256	0
383	18558	5.867733226843	0
383	18645	5.870289818415	0
383	18693	5.871652336681	0
383	18817	5.876154261911	0
383	18916	5.878365371992	0
383	18963	5.879191445296	0
383	18986	5.879741815241	0
383	19034	5.880949814996	0
383	19148	5.883482851283	0
383	19188	5.88491100058	0
383	19198	5.88529500058	0
383	19238	5.886758998871	0
383	19330	5.891009219275	0
383	19519	5.899544180791	0
383	19574	5.902141364421	0
383	19708	5.905865659352	0
384	331	2.433227665029	0
384	344	2.435043665029	0
385	331	2.433227665029	7504
385	344	2.435043665029	616038
385	344	2.435043665029	616038
386	331	2.433227665029	7504
386	344	2.435043665029	7504
387	331	2.433227665029	0
387	344	2.435043665029	608534
388	338	2.434135665029	615811
388	338	2.434135665029	615811
388	351	2.435927665029	615811
389	338	2.434135665029	7504
389	351	2.435927665029	7504
390	338	2.434135665029	0
390	351	2.435927665029	0
390	351	2.435927665029	1
391	338	2.434135665029	7504
391	351	2.435927665029	7503
392	338	2.434135665029	608307
392	351	2.435927665029	608308
393	344	2.435043665029	608533
393	361	2.436803665029	608534
394	344	2.435043665029	608307
394	361	2.436803665029	608308
395	344	2.435043665029	7504
395	361	2.436803665029	7503
396	344	2.435043665029	1
396	361	2.436803665029	0
397	351	2.435927665029	608307
398	351	2.435927665029	608534
399	351	2.435927665029	0
400	351	2.435927665029	1072
401	351	2.435927665029	4294967295
402	351	2.435927665029	0
403	361	2.436803665029	0.00176
404	361	2.436803665029	0.00022
405	361	2.436803665029	0.65647
406	361	2.436803665029	2.6261
407	361	2.436803665029	1072
408	361	2.436803665029	4294967295
409	361	2.436803665029	0
410	363	2.640631455428	0
410	376	2.642447455428	0
411	363	2.640631455428	7504
411	376	2.642447455428	667889
411	376	2.642447455428	667889
412	363	2.640631455428	7504
412	376	2.642447455428	7504
413	363	2.640631455428	0
413	376	2.642447455428	660385
414	370	2.641539455428	667662
414	370	2.641539455428	667662
414	383	2.643331455428	667662
415	370	2.641539455428	7504
415	383	2.643331455428	7504
416	370	2.641539455428	0
416	383	2.643331455428	0
416	383	2.643331455428	1
417	370	2.641539455428	7504
417	383	2.643331455428	7503
418	370	2.641539455428	660158
418	383	2.643331455428	660159
419	376	2.642447455428	660384
419	393	2.644207455428	660385
420	376	2.642447455428	660158
420	393	2.644207455428	660159
421	376	2.642447455428	7504
421	393	2.644207455428	7503
422	376	2.642447455428	1
422	393	2.644207455428	0
423	383	2.643331455428	660158
424	383	2.643331455428	660385
425	383	2.643331455428	0
426	383	2.643331455428	1072
427	383	2.643331455428	4294967295
428	383	2.643331455428	0
429	393	2.644207455428	0.00176
430	393	2.644207455428	0.00022
431	393	2.644207455428	0.65647
432	393	2.644207455428	2.6261
433	393	2.644207455428	1072
434	393	2.644207455428	4294967295
435	393	2.644207455428	0

