version 2
run BROADCAST6-0-20220111-19:13:05-14860
attr configname BROADCAST6
attr datetime 20220111-19:13:05
attr experiment BROADCAST6
attr inifile omnetpp.ini
attr iterationvars ""
attr iterationvarsf ""
attr measurement ""
attr network scenario
attr processid 14860
attr repetition 0
attr replication #0
attr resultdir results
attr runnumber 0
attr seedset 0
param **.client0.app[0].broadcast 2.1
param **.client4.app[0].leave 1.0
param **.ppp[*].ppp.queue.typename "\"DropTailQueue\""
param **.tcp.typename "\"Tcp\""
param **.tcp.nagleEnabled false
param **.cli*.app[*].nPar 5
param **.cli*.app[*].fPar 0
param **.numApps 1
param **.client0.app[*].typename "\"Node\""
param **.client0.app[0].localPort 1000
param **.client0.app[0].localPortL 1234
param **.client0.app[0].connectAddress "\"\""
param **.client0.app[0].connectPort 1234
param **.client1.app[*].typename "\"Node\""
param **.client1.app[0].localPort 1001
param **.client1.app[0].localPortL 1234
param **.client1.app[0].connectAddress "\"\""
param **.client1.app[0].connectPort 1234
param **.client2.app[*].typename "\"Node\""
param **.client2.app[0].localPort 1002
param **.client2.app[0].localPortL 1234
param **.client2.app[0].connectAddress "\"\""
param **.client2.app[0].connectPort 1234
param **.client3.app[*].typename "\"Node\""
param **.client3.app[0].localPort 1003
param **.client3.app[0].localPortL 1234
param **.client3.app[0].connectAddress "\"\""
param **.client3.app[0].connectPort 1234
param **.client4.app[*].typename "\"Node\""
param **.client4.app[0].localPort 1004
param **.client4.app[0].localPortL 1234
param **.client4.app[0].connectAddress "\"\""
param **.client4.app[0].connectPort 1234
param *.configurator.dumpAddresses true
param *.configurator.dumpTopology true
param *.configurator.dumpLinks true
param *.configurator.dumpRoutes true

vector 0 scenario.client0.ppp[0].ppp transmissionState:vector ETV
attr interpolationmode sample-hold
attr source transmissionStateChanged
attr title "tx state, vector"
vector 1 scenario.client0.ppp[1].ppp transmissionState:vector ETV
attr interpolationmode sample-hold
attr source transmissionStateChanged
attr title "tx state, vector"
vector 2 scenario.client0.ppp[2].ppp transmissionState:vector ETV
attr interpolationmode sample-hold
attr source transmissionStateChanged
attr title "tx state, vector"
vector 3 scenario.client0.ppp[3].ppp transmissionState:vector ETV
attr interpolationmode sample-hold
attr source transmissionStateChanged
attr title "tx state, vector"
vector 4 scenario.client1.ppp[0].ppp transmissionState:vector ETV
attr interpolationmode sample-hold
attr source transmissionStateChanged
attr title "tx state, vector"
vector 5 scenario.client1.ppp[1].ppp transmissionState:vector ETV
attr interpolationmode sample-hold
attr source transmissionStateChanged
attr title "tx state, vector"
vector 6 scenario.client1.ppp[2].ppp transmissionState:vector ETV
attr interpolationmode sample-hold
attr source transmissionStateChanged
attr title "tx state, vector"
vector 7 scenario.client1.ppp[3].ppp transmissionState:vector ETV
attr interpolationmode sample-hold
attr source transmissionStateChanged
attr title "tx state, vector"
vector 8 scenario.client2.ppp[0].ppp transmissionState:vector ETV
attr interpolationmode sample-hold
attr source transmissionStateChanged
attr title "tx state, vector"
vector 9 scenario.client2.ppp[1].ppp transmissionState:vector ETV
attr interpolationmode sample-hold
attr source transmissionStateChanged
attr title "tx state, vector"
vector 10 scenario.client2.ppp[2].ppp transmissionState:vector ETV
attr interpolationmode sample-hold
attr source transmissionStateChanged
attr title "tx state, vector"
vector 11 scenario.client2.ppp[3].ppp transmissionState:vector ETV
attr interpolationmode sample-hold
attr source transmissionStateChanged
attr title "tx state, vector"
vector 12 scenario.client3.ppp[0].ppp transmissionState:vector ETV
attr interpolationmode sample-hold
attr source transmissionStateChanged
attr title "tx state, vector"
vector 13 scenario.client3.ppp[1].ppp transmissionState:vector ETV
attr interpolationmode sample-hold
attr source transmissionStateChanged
attr title "tx state, vector"
vector 14 scenario.client3.ppp[2].ppp transmissionState:vector ETV
attr interpolationmode sample-hold
attr source transmissionStateChanged
attr title "tx state, vector"
vector 15 scenario.client3.ppp[3].ppp transmissionState:vector ETV
attr interpolationmode sample-hold
attr source transmissionStateChanged
attr title "tx state, vector"
vector 16 scenario.client4.ppp[0].ppp transmissionState:vector ETV
attr interpolationmode sample-hold
attr source transmissionStateChanged
attr title "tx state, vector"
vector 17 scenario.client4.ppp[1].ppp transmissionState:vector ETV
attr interpolationmode sample-hold
attr source transmissionStateChanged
attr title "tx state, vector"
vector 18 scenario.client4.ppp[2].ppp transmissionState:vector ETV
attr interpolationmode sample-hold
attr source transmissionStateChanged
attr title "tx state, vector"
vector 19 scenario.client4.ppp[3].ppp transmissionState:vector ETV
attr interpolationmode sample-hold
attr source transmissionStateChanged
attr title "tx state, vector"
vector 20 scenario.client4.tcp.conn-25 tcpRcvQueueBytes:vector ETV
attr interpolationmode sample-hold
vector 21 scenario.client4.tcp.conn-25 rcvAdv:vector ETV
attr interpolationmode sample-hold
vector 22 scenario.client4.tcp.conn-25 rcvWnd:vector ETV
attr interpolationmode sample-hold
vector 23 scenario.client4.tcp.conn-25 sndAck:vector ETV
attr interpolationmode sample-hold
vector 24 scenario.client4.ppp[1].ppp rcvdPkFromHl:vector(packetBytes) ETV
attr interpolationmode none
attr source packetReceivedFromUpper
attr title "packets received from higher layer, vector(packetBytes)"
vector 25 scenario.client4.ppp[1].ppp.queue packetPushed:vector(packetBytes) ETV
attr interpolationmode none
attr title "packet pushed, vector(packetBytes)"
vector 26 scenario.client4.ppp[1].ppp.queue queueLength:vector ETV
attr interpolationmode sample-hold
attr source "count(packetPushed) - count(packetPopped) - count(packetRemoved) - count(packetDropped)"
attr title "queue length, vector"
vector 27 scenario.client4.ppp[1].ppp.queue packetPopped:vector(packetBytes) ETV
attr interpolationmode none
attr title "packet popped, vector(packetBytes)"
vector 28 scenario.client4.ppp[1].ppp.queue queueingTime:vector ETV
attr interpolationmode none
attr source queueingTime(packetPopped)
attr title "queueing times, vector"
attr unit s
vector 29 scenario.client4.ppp[1].ppp txPk:vector(packetBytes) ETV
attr interpolationmode none
attr source packetSentToLower
attr title "packets transmitted, vector(packetBytes)"
vector 30 scenario.client1.ppp[3].ppp rxPkOk:vector(packetBytes) ETV
attr interpolationmode none
attr source rxPkOk
attr title "packets received OK, vector(packetBytes)"
vector 31 scenario.client1.ppp[3].ppp passedUpPk:vector(packetBytes) ETV
attr interpolationmode none
attr source packetSentToUpper
attr title "packets passed to higher layer, vector(packetBytes)"
vector 32 scenario.client1.tcp.conn-1 rcvSeq:vector ETV
attr interpolationmode sample-hold
vector 33 scenario.client1.tcp.conn-1 rcvAck:vector ETV
attr interpolationmode sample-hold
vector 34 scenario.client1.tcp.conn-26 rcvAdv:vector ETV
attr interpolationmode sample-hold
vector 35 scenario.client1.tcp.conn-26 sndWnd:vector ETV
attr interpolationmode sample-hold
vector 36 scenario.client1.tcp.conn-26 tcpRcvQueueBytes:vector ETV
attr interpolationmode sample-hold
vector 37 scenario.client1.tcp.conn-26 rcvWnd:vector ETV
attr interpolationmode sample-hold
vector 38 scenario.client1.tcp.conn-26 sndAck:vector ETV
attr interpolationmode sample-hold
vector 39 scenario.client1.ppp[3].ppp rcvdPkFromHl:vector(packetBytes) ETV
attr interpolationmode none
attr source packetReceivedFromUpper
attr title "packets received from higher layer, vector(packetBytes)"
vector 40 scenario.client1.ppp[3].ppp.queue packetPushed:vector(packetBytes) ETV
attr interpolationmode none
attr title "packet pushed, vector(packetBytes)"
vector 41 scenario.client1.ppp[3].ppp.queue queueLength:vector ETV
attr interpolationmode sample-hold
attr source "count(packetPushed) - count(packetPopped) - count(packetRemoved) - count(packetDropped)"
attr title "queue length, vector"
vector 42 scenario.client1.ppp[3].ppp.queue packetPopped:vector(packetBytes) ETV
attr interpolationmode none
attr title "packet popped, vector(packetBytes)"
vector 43 scenario.client1.ppp[3].ppp.queue queueingTime:vector ETV
attr interpolationmode none
attr source queueingTime(packetPopped)
attr title "queueing times, vector"
attr unit s
vector 44 scenario.client1.ppp[3].ppp txPk:vector(packetBytes) ETV
attr interpolationmode none
attr source packetSentToLower
attr title "packets transmitted, vector(packetBytes)"
vector 45 scenario.client4.ppp[1].ppp rxPkOk:vector(packetBytes) ETV
attr interpolationmode none
attr source rxPkOk
attr title "packets received OK, vector(packetBytes)"
vector 46 scenario.client4.ppp[1].ppp passedUpPk:vector(packetBytes) ETV
attr interpolationmode none
attr source packetSentToUpper
attr title "packets passed to higher layer, vector(packetBytes)"
vector 47 scenario.client4.tcp.conn-25 rcvSeq:vector ETV
attr interpolationmode sample-hold
vector 48 scenario.client4.tcp.conn-25 rcvAck:vector ETV
attr interpolationmode sample-hold
vector 49 scenario.client4.tcp.conn-25 sndWnd:vector ETV
attr interpolationmode sample-hold
vector 50 scenario.client4.tcp.conn-25 unacked:vector ETV
attr interpolationmode sample-hold
vector 51 scenario.client1.tcp.conn-26 rcvSeq:vector ETV
attr interpolationmode sample-hold
vector 52 scenario.client1.tcp.conn-26 rcvAck:vector ETV
attr interpolationmode sample-hold
vector 53 scenario.client1.tcp.conn-26 unacked:vector ETV
attr interpolationmode sample-hold
vector 54 scenario.client1.tcp.conn-26 cwnd:vector ETV
attr interpolationmode sample-hold
vector 55 scenario.client1.tcp.conn-26 ssthresh:vector ETV
attr interpolationmode sample-hold
vector 56 scenario.client1.tcp.conn-26 dupAcks:vector ETV
attr interpolationmode sample-hold
vector 57 scenario.client4.tcp.conn-25 rtt:vector ETV
attr interpolationmode sample-hold
vector 58 scenario.client4.tcp.conn-25 srtt:vector ETV
attr interpolationmode sample-hold
vector 59 scenario.client4.tcp.conn-25 rttvar:vector ETV
attr interpolationmode sample-hold
vector 60 scenario.client4.tcp.conn-25 rto:vector ETV
attr interpolationmode sample-hold
vector 61 scenario.client4.tcp.conn-25 cwnd:vector ETV
attr interpolationmode sample-hold
vector 62 scenario.client4.tcp.conn-25 ssthresh:vector ETV
attr interpolationmode sample-hold
vector 63 scenario.client4.tcp.conn-25 dupAcks:vector ETV
attr interpolationmode sample-hold
vector 64 scenario.client4.tcp.conn-27 tcpRcvQueueBytes:vector ETV
attr interpolationmode sample-hold
vector 65 scenario.client4.tcp.conn-27 rcvAdv:vector ETV
attr interpolationmode sample-hold
vector 66 scenario.client4.tcp.conn-27 rcvWnd:vector ETV
attr interpolationmode sample-hold
vector 67 scenario.client4.tcp.conn-27 sndAck:vector ETV
attr interpolationmode sample-hold
vector 68 scenario.client4.ppp[0].ppp rcvdPkFromHl:vector(packetBytes) ETV
attr interpolationmode none
attr source packetReceivedFromUpper
attr title "packets received from higher layer, vector(packetBytes)"
vector 69 scenario.client4.ppp[0].ppp.queue packetPushed:vector(packetBytes) ETV
attr interpolationmode none
attr title "packet pushed, vector(packetBytes)"
vector 70 scenario.client4.ppp[0].ppp.queue queueLength:vector ETV
attr interpolationmode sample-hold
attr source "count(packetPushed) - count(packetPopped) - count(packetRemoved) - count(packetDropped)"
attr title "queue length, vector"
vector 71 scenario.client4.ppp[0].ppp.queue packetPopped:vector(packetBytes) ETV
attr interpolationmode none
attr title "packet popped, vector(packetBytes)"
vector 72 scenario.client4.ppp[0].ppp.queue queueingTime:vector ETV
attr interpolationmode none
attr source queueingTime(packetPopped)
attr title "queueing times, vector"
attr unit s
vector 73 scenario.client4.ppp[0].ppp txPk:vector(packetBytes) ETV
attr interpolationmode none
attr source packetSentToLower
attr title "packets transmitted, vector(packetBytes)"
vector 74 scenario.client0.ppp[3].ppp rxPkOk:vector(packetBytes) ETV
attr interpolationmode none
attr source rxPkOk
attr title "packets received OK, vector(packetBytes)"
vector 75 scenario.client0.ppp[3].ppp passedUpPk:vector(packetBytes) ETV
attr interpolationmode none
attr source packetSentToUpper
attr title "packets passed to higher layer, vector(packetBytes)"
vector 76 scenario.client0.tcp.conn-0 rcvSeq:vector ETV
attr interpolationmode sample-hold
vector 77 scenario.client0.tcp.conn-0 rcvAck:vector ETV
attr interpolationmode sample-hold
vector 78 scenario.client0.tcp.conn-28 rcvAdv:vector ETV
attr interpolationmode sample-hold
vector 79 scenario.client0.tcp.conn-28 sndWnd:vector ETV
attr interpolationmode sample-hold
vector 80 scenario.client0.tcp.conn-28 tcpRcvQueueBytes:vector ETV
attr interpolationmode sample-hold
vector 81 scenario.client0.tcp.conn-28 rcvWnd:vector ETV
attr interpolationmode sample-hold
vector 82 scenario.client0.tcp.conn-28 sndAck:vector ETV
attr interpolationmode sample-hold
vector 83 scenario.client0.ppp[3].ppp rcvdPkFromHl:vector(packetBytes) ETV
attr interpolationmode none
attr source packetReceivedFromUpper
attr title "packets received from higher layer, vector(packetBytes)"
vector 84 scenario.client0.ppp[3].ppp.queue packetPushed:vector(packetBytes) ETV
attr interpolationmode none
attr title "packet pushed, vector(packetBytes)"
vector 85 scenario.client0.ppp[3].ppp.queue queueLength:vector ETV
attr interpolationmode sample-hold
attr source "count(packetPushed) - count(packetPopped) - count(packetRemoved) - count(packetDropped)"
attr title "queue length, vector"
vector 86 scenario.client0.ppp[3].ppp.queue packetPopped:vector(packetBytes) ETV
attr interpolationmode none
attr title "packet popped, vector(packetBytes)"
vector 87 scenario.client0.ppp[3].ppp.queue queueingTime:vector ETV
attr interpolationmode none
attr source queueingTime(packetPopped)
attr title "queueing times, vector"
attr unit s
vector 88 scenario.client0.ppp[3].ppp txPk:vector(packetBytes) ETV
attr interpolationmode none
attr source packetSentToLower
attr title "packets transmitted, vector(packetBytes)"
vector 89 scenario.client4.ppp[0].ppp rxPkOk:vector(packetBytes) ETV
attr interpolationmode none
attr source rxPkOk
attr title "packets received OK, vector(packetBytes)"
vector 90 scenario.client4.ppp[0].ppp passedUpPk:vector(packetBytes) ETV
attr interpolationmode none
attr source packetSentToUpper
attr title "packets passed to higher layer, vector(packetBytes)"
vector 91 scenario.client4.tcp.conn-27 rcvSeq:vector ETV
attr interpolationmode sample-hold
vector 92 scenario.client4.tcp.conn-27 rcvAck:vector ETV
attr interpolationmode sample-hold
vector 93 scenario.client4.tcp.conn-27 sndWnd:vector ETV
attr interpolationmode sample-hold
vector 94 scenario.client4.tcp.conn-27 unacked:vector ETV
attr interpolationmode sample-hold
vector 95 scenario.client0.tcp.conn-28 rcvSeq:vector ETV
attr interpolationmode sample-hold
vector 96 scenario.client0.tcp.conn-28 rcvAck:vector ETV
attr interpolationmode sample-hold
vector 97 scenario.client0.tcp.conn-28 unacked:vector ETV
attr interpolationmode sample-hold
vector 98 scenario.client0.tcp.conn-28 cwnd:vector ETV
attr interpolationmode sample-hold
vector 99 scenario.client0.tcp.conn-28 ssthresh:vector ETV
attr interpolationmode sample-hold
vector 100 scenario.client0.tcp.conn-28 dupAcks:vector ETV
attr interpolationmode sample-hold
vector 101 scenario.client4.tcp.conn-27 rtt:vector ETV
attr interpolationmode sample-hold
vector 102 scenario.client4.tcp.conn-27 srtt:vector ETV
attr interpolationmode sample-hold
vector 103 scenario.client4.tcp.conn-27 rttvar:vector ETV
attr interpolationmode sample-hold
vector 104 scenario.client4.tcp.conn-27 rto:vector ETV
attr interpolationmode sample-hold
vector 105 scenario.client4.tcp.conn-27 cwnd:vector ETV
attr interpolationmode sample-hold
vector 106 scenario.client4.tcp.conn-27 ssthresh:vector ETV
attr interpolationmode sample-hold
vector 107 scenario.client4.tcp.conn-27 dupAcks:vector ETV
attr interpolationmode sample-hold
vector 108 scenario.client4.tcp.conn-29 tcpRcvQueueBytes:vector ETV
attr interpolationmode sample-hold
vector 109 scenario.client4.tcp.conn-29 rcvAdv:vector ETV
attr interpolationmode sample-hold
vector 110 scenario.client4.tcp.conn-29 rcvWnd:vector ETV
attr interpolationmode sample-hold
vector 111 scenario.client4.tcp.conn-29 sndAck:vector ETV
attr interpolationmode sample-hold
vector 112 scenario.client4.ppp[2].ppp rcvdPkFromHl:vector(packetBytes) ETV
attr interpolationmode none
attr source packetReceivedFromUpper
attr title "packets received from higher layer, vector(packetBytes)"
vector 113 scenario.client4.ppp[2].ppp.queue packetPushed:vector(packetBytes) ETV
attr interpolationmode none
attr title "packet pushed, vector(packetBytes)"
vector 114 scenario.client4.ppp[2].ppp.queue queueLength:vector ETV
attr interpolationmode sample-hold
attr source "count(packetPushed) - count(packetPopped) - count(packetRemoved) - count(packetDropped)"
attr title "queue length, vector"
vector 115 scenario.client4.ppp[2].ppp.queue packetPopped:vector(packetBytes) ETV
attr interpolationmode none
attr title "packet popped, vector(packetBytes)"
vector 116 scenario.client4.ppp[2].ppp.queue queueingTime:vector ETV
attr interpolationmode none
attr source queueingTime(packetPopped)
attr title "queueing times, vector"
attr unit s
vector 117 scenario.client4.ppp[2].ppp txPk:vector(packetBytes) ETV
attr interpolationmode none
attr source packetSentToLower
attr title "packets transmitted, vector(packetBytes)"
vector 118 scenario.client2.ppp[3].ppp rxPkOk:vector(packetBytes) ETV
attr interpolationmode none
attr source rxPkOk
attr title "packets received OK, vector(packetBytes)"
vector 119 scenario.client2.ppp[3].ppp passedUpPk:vector(packetBytes) ETV
attr interpolationmode none
attr source packetSentToUpper
attr title "packets passed to higher layer, vector(packetBytes)"
vector 120 scenario.client2.tcp.conn-2 rcvSeq:vector ETV
attr interpolationmode sample-hold
vector 121 scenario.client2.tcp.conn-2 rcvAck:vector ETV
attr interpolationmode sample-hold
vector 122 scenario.client2.tcp.conn-30 rcvAdv:vector ETV
attr interpolationmode sample-hold
vector 123 scenario.client2.tcp.conn-30 sndWnd:vector ETV
attr interpolationmode sample-hold
vector 124 scenario.client2.tcp.conn-30 tcpRcvQueueBytes:vector ETV
attr interpolationmode sample-hold
vector 125 scenario.client2.tcp.conn-30 rcvWnd:vector ETV
attr interpolationmode sample-hold
vector 126 scenario.client2.tcp.conn-30 sndAck:vector ETV
attr interpolationmode sample-hold
vector 127 scenario.client2.ppp[3].ppp rcvdPkFromHl:vector(packetBytes) ETV
attr interpolationmode none
attr source packetReceivedFromUpper
attr title "packets received from higher layer, vector(packetBytes)"
vector 128 scenario.client2.ppp[3].ppp.queue packetPushed:vector(packetBytes) ETV
attr interpolationmode none
attr title "packet pushed, vector(packetBytes)"
vector 129 scenario.client2.ppp[3].ppp.queue queueLength:vector ETV
attr interpolationmode sample-hold
attr source "count(packetPushed) - count(packetPopped) - count(packetRemoved) - count(packetDropped)"
attr title "queue length, vector"
vector 130 scenario.client2.ppp[3].ppp.queue packetPopped:vector(packetBytes) ETV
attr interpolationmode none
attr title "packet popped, vector(packetBytes)"
vector 131 scenario.client2.ppp[3].ppp.queue queueingTime:vector ETV
attr interpolationmode none
attr source queueingTime(packetPopped)
attr title "queueing times, vector"
attr unit s
vector 132 scenario.client2.ppp[3].ppp txPk:vector(packetBytes) ETV
attr interpolationmode none
attr source packetSentToLower
attr title "packets transmitted, vector(packetBytes)"
vector 133 scenario.client4.ppp[2].ppp rxPkOk:vector(packetBytes) ETV
attr interpolationmode none
attr source rxPkOk
attr title "packets received OK, vector(packetBytes)"
vector 134 scenario.client4.ppp[2].ppp passedUpPk:vector(packetBytes) ETV
attr interpolationmode none
attr source packetSentToUpper
attr title "packets passed to higher layer, vector(packetBytes)"
vector 135 scenario.client4.tcp.conn-29 rcvSeq:vector ETV
attr interpolationmode sample-hold
vector 136 scenario.client4.tcp.conn-29 rcvAck:vector ETV
attr interpolationmode sample-hold
vector 137 scenario.client4.tcp.conn-29 sndWnd:vector ETV
attr interpolationmode sample-hold
vector 138 scenario.client4.tcp.conn-29 unacked:vector ETV
attr interpolationmode sample-hold
vector 139 scenario.client2.tcp.conn-30 rcvSeq:vector ETV
attr interpolationmode sample-hold
vector 140 scenario.client2.tcp.conn-30 rcvAck:vector ETV
attr interpolationmode sample-hold
vector 141 scenario.client2.tcp.conn-30 unacked:vector ETV
attr interpolationmode sample-hold
vector 142 scenario.client2.tcp.conn-30 cwnd:vector ETV
attr interpolationmode sample-hold
vector 143 scenario.client2.tcp.conn-30 ssthresh:vector ETV
attr interpolationmode sample-hold
vector 144 scenario.client2.tcp.conn-30 dupAcks:vector ETV
attr interpolationmode sample-hold
vector 145 scenario.client4.tcp.conn-29 rtt:vector ETV
attr interpolationmode sample-hold
vector 146 scenario.client4.tcp.conn-29 srtt:vector ETV
attr interpolationmode sample-hold
vector 147 scenario.client4.tcp.conn-29 rttvar:vector ETV
attr interpolationmode sample-hold
vector 148 scenario.client4.tcp.conn-29 rto:vector ETV
attr interpolationmode sample-hold
vector 149 scenario.client4.tcp.conn-29 cwnd:vector ETV
attr interpolationmode sample-hold
vector 150 scenario.client4.tcp.conn-29 ssthresh:vector ETV
attr interpolationmode sample-hold
vector 151 scenario.client4.tcp.conn-29 dupAcks:vector ETV
attr interpolationmode sample-hold
vector 152 scenario.client0.tcp.conn-31 tcpRcvQueueBytes:vector ETV
attr interpolationmode sample-hold
vector 153 scenario.client0.tcp.conn-31 rcvAdv:vector ETV
attr interpolationmode sample-hold
vector 154 scenario.client0.tcp.conn-31 rcvWnd:vector ETV
attr interpolationmode sample-hold
vector 155 scenario.client0.tcp.conn-31 sndAck:vector ETV
attr interpolationmode sample-hold
vector 156 scenario.client4.tcp.conn-4 rcvSeq:vector ETV
attr interpolationmode sample-hold
vector 157 scenario.client4.tcp.conn-4 rcvAck:vector ETV
attr interpolationmode sample-hold
vector 158 scenario.client4.tcp.conn-32 rcvAdv:vector ETV
attr interpolationmode sample-hold
vector 159 scenario.client4.tcp.conn-32 sndWnd:vector ETV
attr interpolationmode sample-hold
vector 160 scenario.client4.tcp.conn-32 tcpRcvQueueBytes:vector ETV
attr interpolationmode sample-hold
vector 161 scenario.client4.tcp.conn-32 rcvWnd:vector ETV
attr interpolationmode sample-hold
vector 162 scenario.client4.tcp.conn-32 sndAck:vector ETV
attr interpolationmode sample-hold
vector 163 scenario.client0.tcp.conn-31 rcvSeq:vector ETV
attr interpolationmode sample-hold
vector 164 scenario.client0.tcp.conn-31 rcvAck:vector ETV
attr interpolationmode sample-hold
vector 165 scenario.client0.tcp.conn-31 sndWnd:vector ETV
attr interpolationmode sample-hold
vector 166 scenario.client0.tcp.conn-31 unacked:vector ETV
attr interpolationmode sample-hold
vector 167 scenario.client4.tcp.conn-32 rcvSeq:vector ETV
attr interpolationmode sample-hold
vector 168 scenario.client4.tcp.conn-32 rcvAck:vector ETV
attr interpolationmode sample-hold
vector 169 scenario.client4.tcp.conn-32 unacked:vector ETV
attr interpolationmode sample-hold
vector 170 scenario.client4.tcp.conn-32 cwnd:vector ETV
attr interpolationmode sample-hold
vector 171 scenario.client4.tcp.conn-32 ssthresh:vector ETV
attr interpolationmode sample-hold
vector 172 scenario.client4.tcp.conn-32 dupAcks:vector ETV
attr interpolationmode sample-hold
vector 173 scenario.client0.tcp.conn-31 rtt:vector ETV
attr interpolationmode sample-hold
vector 174 scenario.client0.tcp.conn-31 srtt:vector ETV
attr interpolationmode sample-hold
vector 175 scenario.client0.tcp.conn-31 rttvar:vector ETV
attr interpolationmode sample-hold
vector 176 scenario.client0.tcp.conn-31 rto:vector ETV
attr interpolationmode sample-hold
vector 177 scenario.client0.tcp.conn-31 cwnd:vector ETV
attr interpolationmode sample-hold
vector 178 scenario.client0.tcp.conn-31 ssthresh:vector ETV
attr interpolationmode sample-hold
vector 179 scenario.client0.tcp.conn-31 dupAcks:vector ETV
attr interpolationmode sample-hold
vector 180 scenario.client4.tcp.conn-33 tcpRcvQueueBytes:vector ETV
attr interpolationmode sample-hold
vector 181 scenario.client4.tcp.conn-33 rcvAdv:vector ETV
attr interpolationmode sample-hold
vector 182 scenario.client4.tcp.conn-33 rcvWnd:vector ETV
attr interpolationmode sample-hold
vector 183 scenario.client4.tcp.conn-33 sndAck:vector ETV
attr interpolationmode sample-hold
vector 184 scenario.client4.ppp[3].ppp rcvdPkFromHl:vector(packetBytes) ETV
attr interpolationmode none
attr source packetReceivedFromUpper
attr title "packets received from higher layer, vector(packetBytes)"
vector 185 scenario.client4.ppp[3].ppp.queue packetPushed:vector(packetBytes) ETV
attr interpolationmode none
attr title "packet pushed, vector(packetBytes)"
vector 186 scenario.client4.ppp[3].ppp.queue queueLength:vector ETV
attr interpolationmode sample-hold
attr source "count(packetPushed) - count(packetPopped) - count(packetRemoved) - count(packetDropped)"
attr title "queue length, vector"
vector 187 scenario.client4.ppp[3].ppp.queue packetPopped:vector(packetBytes) ETV
attr interpolationmode none
attr title "packet popped, vector(packetBytes)"
vector 188 scenario.client4.ppp[3].ppp.queue queueingTime:vector ETV
attr interpolationmode none
attr source queueingTime(packetPopped)
attr title "queueing times, vector"
attr unit s
vector 189 scenario.client4.ppp[3].ppp txPk:vector(packetBytes) ETV
attr interpolationmode none
attr source packetSentToLower
attr title "packets transmitted, vector(packetBytes)"
vector 190 scenario.client3.ppp[3].ppp rxPkOk:vector(packetBytes) ETV
attr interpolationmode none
attr source rxPkOk
attr title "packets received OK, vector(packetBytes)"
vector 191 scenario.client3.ppp[3].ppp passedUpPk:vector(packetBytes) ETV
attr interpolationmode none
attr source packetSentToUpper
attr title "packets passed to higher layer, vector(packetBytes)"
vector 192 scenario.client3.tcp.conn-3 rcvSeq:vector ETV
attr interpolationmode sample-hold
vector 193 scenario.client3.tcp.conn-3 rcvAck:vector ETV
attr interpolationmode sample-hold
vector 194 scenario.client3.tcp.conn-34 rcvAdv:vector ETV
attr interpolationmode sample-hold
vector 195 scenario.client3.tcp.conn-34 sndWnd:vector ETV
attr interpolationmode sample-hold
vector 196 scenario.client3.tcp.conn-34 tcpRcvQueueBytes:vector ETV
attr interpolationmode sample-hold
vector 197 scenario.client3.tcp.conn-34 rcvWnd:vector ETV
attr interpolationmode sample-hold
vector 198 scenario.client3.tcp.conn-34 sndAck:vector ETV
attr interpolationmode sample-hold
vector 199 scenario.client3.ppp[3].ppp rcvdPkFromHl:vector(packetBytes) ETV
attr interpolationmode none
attr source packetReceivedFromUpper
attr title "packets received from higher layer, vector(packetBytes)"
vector 200 scenario.client3.ppp[3].ppp.queue packetPushed:vector(packetBytes) ETV
attr interpolationmode none
attr title "packet pushed, vector(packetBytes)"
vector 201 scenario.client3.ppp[3].ppp.queue queueLength:vector ETV
attr interpolationmode sample-hold
attr source "count(packetPushed) - count(packetPopped) - count(packetRemoved) - count(packetDropped)"
attr title "queue length, vector"
vector 202 scenario.client3.ppp[3].ppp.queue packetPopped:vector(packetBytes) ETV
attr interpolationmode none
attr title "packet popped, vector(packetBytes)"
vector 203 scenario.client3.ppp[3].ppp.queue queueingTime:vector ETV
attr interpolationmode none
attr source queueingTime(packetPopped)
attr title "queueing times, vector"
attr unit s
vector 204 scenario.client3.ppp[3].ppp txPk:vector(packetBytes) ETV
attr interpolationmode none
attr source packetSentToLower
attr title "packets transmitted, vector(packetBytes)"
vector 205 scenario.client4.ppp[3].ppp rxPkOk:vector(packetBytes) ETV
attr interpolationmode none
attr source rxPkOk
attr title "packets received OK, vector(packetBytes)"
vector 206 scenario.client4.ppp[3].ppp passedUpPk:vector(packetBytes) ETV
attr interpolationmode none
attr source packetSentToUpper
attr title "packets passed to higher layer, vector(packetBytes)"
vector 207 scenario.client4.tcp.conn-33 rcvSeq:vector ETV
attr interpolationmode sample-hold
vector 208 scenario.client4.tcp.conn-33 rcvAck:vector ETV
attr interpolationmode sample-hold
vector 209 scenario.client4.tcp.conn-33 sndWnd:vector ETV
attr interpolationmode sample-hold
vector 210 scenario.client4.tcp.conn-33 unacked:vector ETV
attr interpolationmode sample-hold
vector 211 scenario.client3.tcp.conn-34 rcvSeq:vector ETV
attr interpolationmode sample-hold
vector 212 scenario.client3.tcp.conn-34 rcvAck:vector ETV
attr interpolationmode sample-hold
vector 213 scenario.client3.tcp.conn-34 unacked:vector ETV
attr interpolationmode sample-hold
vector 214 scenario.client3.tcp.conn-34 cwnd:vector ETV
attr interpolationmode sample-hold
vector 215 scenario.client3.tcp.conn-34 ssthresh:vector ETV
attr interpolationmode sample-hold
vector 216 scenario.client3.tcp.conn-34 dupAcks:vector ETV
attr interpolationmode sample-hold
vector 217 scenario.client4.tcp.conn-33 rtt:vector ETV
attr interpolationmode sample-hold
vector 218 scenario.client4.tcp.conn-33 srtt:vector ETV
attr interpolationmode sample-hold
vector 219 scenario.client4.tcp.conn-33 rttvar:vector ETV
attr interpolationmode sample-hold
vector 220 scenario.client4.tcp.conn-33 rto:vector ETV
attr interpolationmode sample-hold
vector 221 scenario.client4.tcp.conn-33 cwnd:vector ETV
attr interpolationmode sample-hold
vector 222 scenario.client4.tcp.conn-33 ssthresh:vector ETV
attr interpolationmode sample-hold
vector 223 scenario.client4.tcp.conn-33 dupAcks:vector ETV
attr interpolationmode sample-hold
vector 224 scenario.client2.tcp.conn-35 tcpRcvQueueBytes:vector ETV
attr interpolationmode sample-hold
vector 225 scenario.client2.tcp.conn-35 rcvAdv:vector ETV
attr interpolationmode sample-hold
vector 226 scenario.client2.tcp.conn-35 rcvWnd:vector ETV
attr interpolationmode sample-hold
vector 227 scenario.client2.tcp.conn-35 sndAck:vector ETV
attr interpolationmode sample-hold
vector 228 scenario.client4.tcp.conn-36 rcvAdv:vector ETV
attr interpolationmode sample-hold
vector 229 scenario.client4.tcp.conn-36 sndWnd:vector ETV
attr interpolationmode sample-hold
vector 230 scenario.client4.tcp.conn-36 tcpRcvQueueBytes:vector ETV
attr interpolationmode sample-hold
vector 231 scenario.client4.tcp.conn-36 rcvWnd:vector ETV
attr interpolationmode sample-hold
vector 232 scenario.client4.tcp.conn-36 sndAck:vector ETV
attr interpolationmode sample-hold
vector 233 scenario.client2.tcp.conn-35 rcvSeq:vector ETV
attr interpolationmode sample-hold
vector 234 scenario.client2.tcp.conn-35 rcvAck:vector ETV
attr interpolationmode sample-hold
vector 235 scenario.client2.tcp.conn-35 sndWnd:vector ETV
attr interpolationmode sample-hold
vector 236 scenario.client2.tcp.conn-35 unacked:vector ETV
attr interpolationmode sample-hold
vector 237 scenario.client4.tcp.conn-36 rcvSeq:vector ETV
attr interpolationmode sample-hold
vector 238 scenario.client4.tcp.conn-36 rcvAck:vector ETV
attr interpolationmode sample-hold
vector 239 scenario.client4.tcp.conn-36 unacked:vector ETV
attr interpolationmode sample-hold
vector 240 scenario.client4.tcp.conn-36 cwnd:vector ETV
attr interpolationmode sample-hold
vector 241 scenario.client4.tcp.conn-36 ssthresh:vector ETV
attr interpolationmode sample-hold
vector 242 scenario.client4.tcp.conn-36 dupAcks:vector ETV
attr interpolationmode sample-hold
vector 243 scenario.client2.tcp.conn-35 rtt:vector ETV
attr interpolationmode sample-hold
vector 244 scenario.client2.tcp.conn-35 srtt:vector ETV
attr interpolationmode sample-hold
vector 245 scenario.client2.tcp.conn-35 rttvar:vector ETV
attr interpolationmode sample-hold
vector 246 scenario.client2.tcp.conn-35 rto:vector ETV
attr interpolationmode sample-hold
vector 247 scenario.client2.tcp.conn-35 cwnd:vector ETV
attr interpolationmode sample-hold
vector 248 scenario.client2.tcp.conn-35 ssthresh:vector ETV
attr interpolationmode sample-hold
vector 249 scenario.client2.tcp.conn-35 dupAcks:vector ETV
attr interpolationmode sample-hold
vector 250 scenario.client1.tcp.conn-37 tcpRcvQueueBytes:vector ETV
attr interpolationmode sample-hold
vector 251 scenario.client1.tcp.conn-37 rcvAdv:vector ETV
attr interpolationmode sample-hold
vector 252 scenario.client1.tcp.conn-37 rcvWnd:vector ETV
attr interpolationmode sample-hold
vector 253 scenario.client1.tcp.conn-37 sndAck:vector ETV
attr interpolationmode sample-hold
vector 254 scenario.client4.tcp.conn-38 rcvAdv:vector ETV
attr interpolationmode sample-hold
vector 255 scenario.client4.tcp.conn-38 sndWnd:vector ETV
attr interpolationmode sample-hold
vector 256 scenario.client4.tcp.conn-38 tcpRcvQueueBytes:vector ETV
attr interpolationmode sample-hold
vector 257 scenario.client4.tcp.conn-38 rcvWnd:vector ETV
attr interpolationmode sample-hold
vector 258 scenario.client4.tcp.conn-38 sndAck:vector ETV
attr interpolationmode sample-hold
vector 259 scenario.client1.tcp.conn-37 rcvSeq:vector ETV
attr interpolationmode sample-hold
vector 260 scenario.client1.tcp.conn-37 rcvAck:vector ETV
attr interpolationmode sample-hold
vector 261 scenario.client1.tcp.conn-37 sndWnd:vector ETV
attr interpolationmode sample-hold
vector 262 scenario.client1.tcp.conn-37 unacked:vector ETV
attr interpolationmode sample-hold
vector 263 scenario.client4.tcp.conn-38 rcvSeq:vector ETV
attr interpolationmode sample-hold
vector 264 scenario.client4.tcp.conn-38 rcvAck:vector ETV
attr interpolationmode sample-hold
vector 265 scenario.client4.tcp.conn-38 unacked:vector ETV
attr interpolationmode sample-hold
vector 266 scenario.client4.tcp.conn-38 cwnd:vector ETV
attr interpolationmode sample-hold
vector 267 scenario.client4.tcp.conn-38 ssthresh:vector ETV
attr interpolationmode sample-hold
vector 268 scenario.client4.tcp.conn-38 dupAcks:vector ETV
attr interpolationmode sample-hold
vector 269 scenario.client1.tcp.conn-37 rtt:vector ETV
attr interpolationmode sample-hold
vector 270 scenario.client1.tcp.conn-37 srtt:vector ETV
attr interpolationmode sample-hold
vector 271 scenario.client1.tcp.conn-37 rttvar:vector ETV
attr interpolationmode sample-hold
vector 272 scenario.client1.tcp.conn-37 rto:vector ETV
attr interpolationmode sample-hold
vector 273 scenario.client1.tcp.conn-37 cwnd:vector ETV
attr interpolationmode sample-hold
vector 274 scenario.client1.tcp.conn-37 ssthresh:vector ETV
attr interpolationmode sample-hold
vector 275 scenario.client1.tcp.conn-37 dupAcks:vector ETV
attr interpolationmode sample-hold
vector 276 scenario.client3.tcp.conn-39 tcpRcvQueueBytes:vector ETV
attr interpolationmode sample-hold
vector 277 scenario.client3.tcp.conn-39 rcvAdv:vector ETV
attr interpolationmode sample-hold
vector 278 scenario.client3.tcp.conn-39 rcvWnd:vector ETV
attr interpolationmode sample-hold
vector 279 scenario.client3.tcp.conn-39 sndAck:vector ETV
attr interpolationmode sample-hold
vector 280 scenario.client4.tcp.conn-40 rcvAdv:vector ETV
attr interpolationmode sample-hold
vector 281 scenario.client4.tcp.conn-40 sndWnd:vector ETV
attr interpolationmode sample-hold
vector 282 scenario.client4.tcp.conn-40 tcpRcvQueueBytes:vector ETV
attr interpolationmode sample-hold
vector 283 scenario.client4.tcp.conn-40 rcvWnd:vector ETV
attr interpolationmode sample-hold
vector 284 scenario.client4.tcp.conn-40 sndAck:vector ETV
attr interpolationmode sample-hold
vector 285 scenario.client3.tcp.conn-39 rcvSeq:vector ETV
attr interpolationmode sample-hold
vector 286 scenario.client3.tcp.conn-39 rcvAck:vector ETV
attr interpolationmode sample-hold
vector 287 scenario.client3.tcp.conn-39 sndWnd:vector ETV
attr interpolationmode sample-hold
vector 288 scenario.client3.tcp.conn-39 unacked:vector ETV
attr interpolationmode sample-hold
vector 289 scenario.client4.tcp.conn-40 rcvSeq:vector ETV
attr interpolationmode sample-hold
vector 290 scenario.client4.tcp.conn-40 rcvAck:vector ETV
attr interpolationmode sample-hold
vector 291 scenario.client4.tcp.conn-40 unacked:vector ETV
attr interpolationmode sample-hold
vector 292 scenario.client4.tcp.conn-40 cwnd:vector ETV
attr interpolationmode sample-hold
vector 293 scenario.client4.tcp.conn-40 ssthresh:vector ETV
attr interpolationmode sample-hold
vector 294 scenario.client4.tcp.conn-40 dupAcks:vector ETV
attr interpolationmode sample-hold
vector 295 scenario.client3.tcp.conn-39 rtt:vector ETV
attr interpolationmode sample-hold
vector 296 scenario.client3.tcp.conn-39 srtt:vector ETV
attr interpolationmode sample-hold
vector 297 scenario.client3.tcp.conn-39 rttvar:vector ETV
attr interpolationmode sample-hold
vector 298 scenario.client3.tcp.conn-39 rto:vector ETV
attr interpolationmode sample-hold
vector 299 scenario.client3.tcp.conn-39 cwnd:vector ETV
attr interpolationmode sample-hold
vector 300 scenario.client3.tcp.conn-39 ssthresh:vector ETV
attr interpolationmode sample-hold
vector 301 scenario.client3.tcp.conn-39 dupAcks:vector ETV
attr interpolationmode sample-hold
vector 302 scenario.client0.tcp.conn-41 tcpRcvQueueBytes:vector ETV
attr interpolationmode sample-hold
vector 303 scenario.client0.tcp.conn-41 rcvAdv:vector ETV
attr interpolationmode sample-hold
vector 304 scenario.client0.tcp.conn-41 rcvWnd:vector ETV
attr interpolationmode sample-hold
vector 305 scenario.client0.tcp.conn-41 sndAck:vector ETV
attr interpolationmode sample-hold
vector 306 scenario.client0.ppp[2].ppp rcvdPkFromHl:vector(packetBytes) ETV
attr interpolationmode none
attr source packetReceivedFromUpper
attr title "packets received from higher layer, vector(packetBytes)"
vector 307 scenario.client0.ppp[2].ppp.queue packetPushed:vector(packetBytes) ETV
attr interpolationmode none
attr title "packet pushed, vector(packetBytes)"
vector 308 scenario.client0.ppp[2].ppp.queue queueLength:vector ETV
attr interpolationmode sample-hold
attr source "count(packetPushed) - count(packetPopped) - count(packetRemoved) - count(packetDropped)"
attr title "queue length, vector"
vector 309 scenario.client0.ppp[2].ppp.queue packetPopped:vector(packetBytes) ETV
attr interpolationmode none
attr title "packet popped, vector(packetBytes)"
vector 310 scenario.client0.ppp[2].ppp.queue queueingTime:vector ETV
attr interpolationmode none
attr source queueingTime(packetPopped)
attr title "queueing times, vector"
attr unit s
vector 311 scenario.client0.ppp[2].ppp txPk:vector(packetBytes) ETV
attr interpolationmode none
attr source packetSentToLower
attr title "packets transmitted, vector(packetBytes)"
vector 312 scenario.client3.ppp[0].ppp rxPkOk:vector(packetBytes) ETV
attr interpolationmode none
attr source rxPkOk
attr title "packets received OK, vector(packetBytes)"
vector 313 scenario.client3.ppp[0].ppp passedUpPk:vector(packetBytes) ETV
attr interpolationmode none
attr source packetSentToUpper
attr title "packets passed to higher layer, vector(packetBytes)"
vector 314 scenario.client3.tcp.conn-42 rcvAdv:vector ETV
attr interpolationmode sample-hold
vector 315 scenario.client3.tcp.conn-42 sndWnd:vector ETV
attr interpolationmode sample-hold
vector 316 scenario.client3.tcp.conn-42 tcpRcvQueueBytes:vector ETV
attr interpolationmode sample-hold
vector 317 scenario.client3.tcp.conn-42 rcvWnd:vector ETV
attr interpolationmode sample-hold
vector 318 scenario.client3.tcp.conn-42 sndAck:vector ETV
attr interpolationmode sample-hold
vector 319 scenario.client3.ppp[0].ppp rcvdPkFromHl:vector(packetBytes) ETV
attr interpolationmode none
attr source packetReceivedFromUpper
attr title "packets received from higher layer, vector(packetBytes)"
vector 320 scenario.client3.ppp[0].ppp.queue packetPushed:vector(packetBytes) ETV
attr interpolationmode none
attr title "packet pushed, vector(packetBytes)"
vector 321 scenario.client3.ppp[0].ppp.queue queueLength:vector ETV
attr interpolationmode sample-hold
attr source "count(packetPushed) - count(packetPopped) - count(packetRemoved) - count(packetDropped)"
attr title "queue length, vector"
vector 322 scenario.client3.ppp[0].ppp.queue packetPopped:vector(packetBytes) ETV
attr interpolationmode none
attr title "packet popped, vector(packetBytes)"
vector 323 scenario.client3.ppp[0].ppp.queue queueingTime:vector ETV
attr interpolationmode none
attr source queueingTime(packetPopped)
attr title "queueing times, vector"
attr unit s
vector 324 scenario.client3.ppp[0].ppp txPk:vector(packetBytes) ETV
attr interpolationmode none
attr source packetSentToLower
attr title "packets transmitted, vector(packetBytes)"
vector 325 scenario.client0.ppp[2].ppp rxPkOk:vector(packetBytes) ETV
attr interpolationmode none
attr source rxPkOk
attr title "packets received OK, vector(packetBytes)"
vector 326 scenario.client0.ppp[2].ppp passedUpPk:vector(packetBytes) ETV
attr interpolationmode none
attr source packetSentToUpper
attr title "packets passed to higher layer, vector(packetBytes)"
vector 327 scenario.client0.tcp.conn-41 rcvSeq:vector ETV
attr interpolationmode sample-hold
vector 328 scenario.client0.tcp.conn-41 rcvAck:vector ETV
attr interpolationmode sample-hold
vector 329 scenario.client0.tcp.conn-41 sndWnd:vector ETV
attr interpolationmode sample-hold
vector 330 scenario.client0.tcp.conn-41 unacked:vector ETV
attr interpolationmode sample-hold
vector 331 scenario.client3.tcp.conn-42 rcvSeq:vector ETV
attr interpolationmode sample-hold
vector 332 scenario.client3.tcp.conn-42 rcvAck:vector ETV
attr interpolationmode sample-hold
vector 333 scenario.client3.tcp.conn-42 unacked:vector ETV
attr interpolationmode sample-hold
vector 334 scenario.client3.tcp.conn-42 cwnd:vector ETV
attr interpolationmode sample-hold
vector 335 scenario.client3.tcp.conn-42 ssthresh:vector ETV
attr interpolationmode sample-hold
vector 336 scenario.client3.tcp.conn-42 dupAcks:vector ETV
attr interpolationmode sample-hold
vector 337 scenario.client0.tcp.conn-41 rtt:vector ETV
attr interpolationmode sample-hold
vector 338 scenario.client0.tcp.conn-41 srtt:vector ETV
attr interpolationmode sample-hold
vector 339 scenario.client0.tcp.conn-41 rttvar:vector ETV
attr interpolationmode sample-hold
vector 340 scenario.client0.tcp.conn-41 rto:vector ETV
attr interpolationmode sample-hold
vector 341 scenario.client0.tcp.conn-41 cwnd:vector ETV
attr interpolationmode sample-hold
vector 342 scenario.client0.tcp.conn-41 ssthresh:vector ETV
attr interpolationmode sample-hold
vector 343 scenario.client0.tcp.conn-41 dupAcks:vector ETV
attr interpolationmode sample-hold
vector 344 scenario.client0.tcp.conn-43 tcpRcvQueueBytes:vector ETV
attr interpolationmode sample-hold
vector 345 scenario.client0.tcp.conn-43 rcvAdv:vector ETV
attr interpolationmode sample-hold
vector 346 scenario.client0.tcp.conn-43 rcvWnd:vector ETV
attr interpolationmode sample-hold
vector 347 scenario.client0.tcp.conn-43 sndAck:vector ETV
attr interpolationmode sample-hold
vector 348 scenario.client0.ppp[0].ppp rcvdPkFromHl:vector(packetBytes) ETV
attr interpolationmode none
attr source packetReceivedFromUpper
attr title "packets received from higher layer, vector(packetBytes)"
vector 349 scenario.client0.ppp[0].ppp.queue packetPushed:vector(packetBytes) ETV
attr interpolationmode none
attr title "packet pushed, vector(packetBytes)"
vector 350 scenario.client0.ppp[0].ppp.queue queueLength:vector ETV
attr interpolationmode sample-hold
attr source "count(packetPushed) - count(packetPopped) - count(packetRemoved) - count(packetDropped)"
attr title "queue length, vector"
vector 351 scenario.client0.ppp[0].ppp.queue packetPopped:vector(packetBytes) ETV
attr interpolationmode none
attr title "packet popped, vector(packetBytes)"
vector 352 scenario.client0.ppp[0].ppp.queue queueingTime:vector ETV
attr interpolationmode none
attr source queueingTime(packetPopped)
attr title "queueing times, vector"
attr unit s
vector 353 scenario.client0.ppp[0].ppp txPk:vector(packetBytes) ETV
attr interpolationmode none
attr source packetSentToLower
attr title "packets transmitted, vector(packetBytes)"
vector 354 scenario.client1.ppp[0].ppp rxPkOk:vector(packetBytes) ETV
attr interpolationmode none
attr source rxPkOk
attr title "packets received OK, vector(packetBytes)"
vector 355 scenario.client1.ppp[0].ppp passedUpPk:vector(packetBytes) ETV
attr interpolationmode none
attr source packetSentToUpper
attr title "packets passed to higher layer, vector(packetBytes)"
vector 356 scenario.client1.tcp.conn-44 rcvAdv:vector ETV
attr interpolationmode sample-hold
vector 357 scenario.client1.tcp.conn-44 sndWnd:vector ETV
attr interpolationmode sample-hold
vector 358 scenario.client1.tcp.conn-44 tcpRcvQueueBytes:vector ETV
attr interpolationmode sample-hold
vector 359 scenario.client1.tcp.conn-44 rcvWnd:vector ETV
attr interpolationmode sample-hold
vector 360 scenario.client1.tcp.conn-44 sndAck:vector ETV
attr interpolationmode sample-hold
vector 361 scenario.client1.ppp[0].ppp rcvdPkFromHl:vector(packetBytes) ETV
attr interpolationmode none
attr source packetReceivedFromUpper
attr title "packets received from higher layer, vector(packetBytes)"
vector 362 scenario.client1.ppp[0].ppp.queue packetPushed:vector(packetBytes) ETV
attr interpolationmode none
attr title "packet pushed, vector(packetBytes)"
vector 363 scenario.client1.ppp[0].ppp.queue queueLength:vector ETV
attr interpolationmode sample-hold
attr source "count(packetPushed) - count(packetPopped) - count(packetRemoved) - count(packetDropped)"
attr title "queue length, vector"
vector 364 scenario.client1.ppp[0].ppp.queue packetPopped:vector(packetBytes) ETV
attr interpolationmode none
attr title "packet popped, vector(packetBytes)"
vector 365 scenario.client1.ppp[0].ppp.queue queueingTime:vector ETV
attr interpolationmode none
attr source queueingTime(packetPopped)
attr title "queueing times, vector"
attr unit s
vector 366 scenario.client1.ppp[0].ppp txPk:vector(packetBytes) ETV
attr interpolationmode none
attr source packetSentToLower
attr title "packets transmitted, vector(packetBytes)"
vector 367 scenario.client0.ppp[0].ppp rxPkOk:vector(packetBytes) ETV
attr interpolationmode none
attr source rxPkOk
attr title "packets received OK, vector(packetBytes)"
vector 368 scenario.client0.ppp[0].ppp passedUpPk:vector(packetBytes) ETV
attr interpolationmode none
attr source packetSentToUpper
attr title "packets passed to higher layer, vector(packetBytes)"
vector 369 scenario.client0.tcp.conn-43 rcvSeq:vector ETV
attr interpolationmode sample-hold
vector 370 scenario.client0.tcp.conn-43 rcvAck:vector ETV
attr interpolationmode sample-hold
vector 371 scenario.client0.tcp.conn-43 sndWnd:vector ETV
attr interpolationmode sample-hold
vector 372 scenario.client0.tcp.conn-43 unacked:vector ETV
attr interpolationmode sample-hold
vector 373 scenario.client1.tcp.conn-44 rcvSeq:vector ETV
attr interpolationmode sample-hold
vector 374 scenario.client1.tcp.conn-44 rcvAck:vector ETV
attr interpolationmode sample-hold
vector 375 scenario.client1.tcp.conn-44 unacked:vector ETV
attr interpolationmode sample-hold
vector 376 scenario.client1.tcp.conn-44 cwnd:vector ETV
attr interpolationmode sample-hold
vector 377 scenario.client1.tcp.conn-44 ssthresh:vector ETV
attr interpolationmode sample-hold
vector 378 scenario.client1.tcp.conn-44 dupAcks:vector ETV
attr interpolationmode sample-hold
vector 379 scenario.client0.tcp.conn-43 rtt:vector ETV
attr interpolationmode sample-hold
vector 380 scenario.client0.tcp.conn-43 srtt:vector ETV
attr interpolationmode sample-hold
vector 381 scenario.client0.tcp.conn-43 rttvar:vector ETV
attr interpolationmode sample-hold
vector 382 scenario.client0.tcp.conn-43 rto:vector ETV
attr interpolationmode sample-hold
vector 383 scenario.client0.tcp.conn-43 cwnd:vector ETV
attr interpolationmode sample-hold
vector 384 scenario.client0.tcp.conn-43 ssthresh:vector ETV
attr interpolationmode sample-hold
vector 385 scenario.client0.tcp.conn-43 dupAcks:vector ETV
attr interpolationmode sample-hold
vector 386 scenario.client0.tcp.conn-45 tcpRcvQueueBytes:vector ETV
attr interpolationmode sample-hold
vector 387 scenario.client0.tcp.conn-45 rcvAdv:vector ETV
attr interpolationmode sample-hold
vector 388 scenario.client0.tcp.conn-45 rcvWnd:vector ETV
attr interpolationmode sample-hold
vector 389 scenario.client0.tcp.conn-45 sndAck:vector ETV
attr interpolationmode sample-hold
vector 390 scenario.client0.ppp[1].ppp rcvdPkFromHl:vector(packetBytes) ETV
attr interpolationmode none
attr source packetReceivedFromUpper
attr title "packets received from higher layer, vector(packetBytes)"
vector 391 scenario.client0.ppp[1].ppp.queue packetPushed:vector(packetBytes) ETV
attr interpolationmode none
attr title "packet pushed, vector(packetBytes)"
vector 392 scenario.client0.ppp[1].ppp.queue queueLength:vector ETV
attr interpolationmode sample-hold
attr source "count(packetPushed) - count(packetPopped) - count(packetRemoved) - count(packetDropped)"
attr title "queue length, vector"
vector 393 scenario.client0.ppp[1].ppp.queue packetPopped:vector(packetBytes) ETV
attr interpolationmode none
attr title "packet popped, vector(packetBytes)"
vector 394 scenario.client0.ppp[1].ppp.queue queueingTime:vector ETV
attr interpolationmode none
attr source queueingTime(packetPopped)
attr title "queueing times, vector"
attr unit s
vector 395 scenario.client0.ppp[1].ppp txPk:vector(packetBytes) ETV
attr interpolationmode none
attr source packetSentToLower
attr title "packets transmitted, vector(packetBytes)"
vector 396 scenario.client2.ppp[0].ppp rxPkOk:vector(packetBytes) ETV
attr interpolationmode none
attr source rxPkOk
attr title "packets received OK, vector(packetBytes)"
vector 397 scenario.client2.ppp[0].ppp passedUpPk:vector(packetBytes) ETV
attr interpolationmode none
attr source packetSentToUpper
attr title "packets passed to higher layer, vector(packetBytes)"
vector 398 scenario.client2.tcp.conn-46 rcvAdv:vector ETV
attr interpolationmode sample-hold
vector 399 scenario.client2.tcp.conn-46 sndWnd:vector ETV
attr interpolationmode sample-hold
vector 400 scenario.client2.tcp.conn-46 tcpRcvQueueBytes:vector ETV
attr interpolationmode sample-hold
vector 401 scenario.client2.tcp.conn-46 rcvWnd:vector ETV
attr interpolationmode sample-hold
vector 402 scenario.client2.tcp.conn-46 sndAck:vector ETV
attr interpolationmode sample-hold
vector 403 scenario.client2.ppp[0].ppp rcvdPkFromHl:vector(packetBytes) ETV
attr interpolationmode none
attr source packetReceivedFromUpper
attr title "packets received from higher layer, vector(packetBytes)"
vector 404 scenario.client2.ppp[0].ppp.queue packetPushed:vector(packetBytes) ETV
attr interpolationmode none
attr title "packet pushed, vector(packetBytes)"
vector 405 scenario.client2.ppp[0].ppp.queue queueLength:vector ETV
attr interpolationmode sample-hold
attr source "count(packetPushed) - count(packetPopped) - count(packetRemoved) - count(packetDropped)"
attr title "queue length, vector"
vector 406 scenario.client2.ppp[0].ppp.queue packetPopped:vector(packetBytes) ETV
attr interpolationmode none
attr title "packet popped, vector(packetBytes)"
vector 407 scenario.client2.ppp[0].ppp.queue queueingTime:vector ETV
attr interpolationmode none
attr source queueingTime(packetPopped)
attr title "queueing times, vector"
attr unit s
vector 408 scenario.client2.ppp[0].ppp txPk:vector(packetBytes) ETV
attr interpolationmode none
attr source packetSentToLower
attr title "packets transmitted, vector(packetBytes)"
vector 409 scenario.client0.ppp[1].ppp rxPkOk:vector(packetBytes) ETV
attr interpolationmode none
attr source rxPkOk
attr title "packets received OK, vector(packetBytes)"
vector 410 scenario.client0.ppp[1].ppp passedUpPk:vector(packetBytes) ETV
attr interpolationmode none
attr source packetSentToUpper
attr title "packets passed to higher layer, vector(packetBytes)"
vector 411 scenario.client0.tcp.conn-45 rcvSeq:vector ETV
attr interpolationmode sample-hold
vector 412 scenario.client0.tcp.conn-45 rcvAck:vector ETV
attr interpolationmode sample-hold
vector 413 scenario.client0.tcp.conn-45 sndWnd:vector ETV
attr interpolationmode sample-hold
vector 414 scenario.client0.tcp.conn-45 unacked:vector ETV
attr interpolationmode sample-hold
vector 415 scenario.client2.tcp.conn-46 rcvSeq:vector ETV
attr interpolationmode sample-hold
vector 416 scenario.client2.tcp.conn-46 rcvAck:vector ETV
attr interpolationmode sample-hold
vector 417 scenario.client2.tcp.conn-46 unacked:vector ETV
attr interpolationmode sample-hold
vector 418 scenario.client2.tcp.conn-46 cwnd:vector ETV
attr interpolationmode sample-hold
vector 419 scenario.client2.tcp.conn-46 ssthresh:vector ETV
attr interpolationmode sample-hold
vector 420 scenario.client2.tcp.conn-46 dupAcks:vector ETV
attr interpolationmode sample-hold
vector 421 scenario.client0.tcp.conn-45 rtt:vector ETV
attr interpolationmode sample-hold
vector 422 scenario.client0.tcp.conn-45 srtt:vector ETV
attr interpolationmode sample-hold
vector 423 scenario.client0.tcp.conn-45 rttvar:vector ETV
attr interpolationmode sample-hold
vector 424 scenario.client0.tcp.conn-45 rto:vector ETV
attr interpolationmode sample-hold
vector 425 scenario.client0.tcp.conn-45 cwnd:vector ETV
attr interpolationmode sample-hold
vector 426 scenario.client0.tcp.conn-45 ssthresh:vector ETV
attr interpolationmode sample-hold
vector 427 scenario.client0.tcp.conn-45 dupAcks:vector ETV
attr interpolationmode sample-hold
vector 428 scenario.client1.tcp.conn-47 tcpRcvQueueBytes:vector ETV
attr interpolationmode sample-hold
vector 429 scenario.client1.tcp.conn-47 rcvAdv:vector ETV
attr interpolationmode sample-hold
vector 430 scenario.client1.tcp.conn-47 rcvWnd:vector ETV
attr interpolationmode sample-hold
vector 431 scenario.client1.tcp.conn-47 sndAck:vector ETV
attr interpolationmode sample-hold
vector 432 scenario.client1.ppp[2].ppp rcvdPkFromHl:vector(packetBytes) ETV
attr interpolationmode none
attr source packetReceivedFromUpper
attr title "packets received from higher layer, vector(packetBytes)"
vector 433 scenario.client1.ppp[2].ppp.queue packetPushed:vector(packetBytes) ETV
attr interpolationmode none
attr title "packet pushed, vector(packetBytes)"
vector 434 scenario.client1.ppp[2].ppp.queue queueLength:vector ETV
attr interpolationmode sample-hold
attr source "count(packetPushed) - count(packetPopped) - count(packetRemoved) - count(packetDropped)"
attr title "queue length, vector"
vector 435 scenario.client1.ppp[2].ppp.queue packetPopped:vector(packetBytes) ETV
attr interpolationmode none
attr title "packet popped, vector(packetBytes)"
vector 436 scenario.client1.ppp[2].ppp.queue queueingTime:vector ETV
attr interpolationmode none
attr source queueingTime(packetPopped)
attr title "queueing times, vector"
attr unit s
vector 437 scenario.client1.ppp[2].ppp txPk:vector(packetBytes) ETV
attr interpolationmode none
attr source packetSentToLower
attr title "packets transmitted, vector(packetBytes)"
vector 438 scenario.client3.ppp[1].ppp rxPkOk:vector(packetBytes) ETV
attr interpolationmode none
attr source rxPkOk
attr title "packets received OK, vector(packetBytes)"
vector 439 scenario.client3.ppp[1].ppp passedUpPk:vector(packetBytes) ETV
attr interpolationmode none
attr source packetSentToUpper
attr title "packets passed to higher layer, vector(packetBytes)"
vector 440 scenario.client3.tcp.conn-48 rcvAdv:vector ETV
attr interpolationmode sample-hold
vector 441 scenario.client3.tcp.conn-48 sndWnd:vector ETV
attr interpolationmode sample-hold
vector 442 scenario.client3.tcp.conn-48 tcpRcvQueueBytes:vector ETV
attr interpolationmode sample-hold
vector 443 scenario.client3.tcp.conn-48 rcvWnd:vector ETV
attr interpolationmode sample-hold
vector 444 scenario.client3.tcp.conn-48 sndAck:vector ETV
attr interpolationmode sample-hold
vector 445 scenario.client3.ppp[1].ppp rcvdPkFromHl:vector(packetBytes) ETV
attr interpolationmode none
attr source packetReceivedFromUpper
attr title "packets received from higher layer, vector(packetBytes)"
vector 446 scenario.client3.ppp[1].ppp.queue packetPushed:vector(packetBytes) ETV
attr interpolationmode none
attr title "packet pushed, vector(packetBytes)"
vector 447 scenario.client3.ppp[1].ppp.queue queueLength:vector ETV
attr interpolationmode sample-hold
attr source "count(packetPushed) - count(packetPopped) - count(packetRemoved) - count(packetDropped)"
attr title "queue length, vector"
vector 448 scenario.client3.ppp[1].ppp.queue packetPopped:vector(packetBytes) ETV
attr interpolationmode none
attr title "packet popped, vector(packetBytes)"
vector 449 scenario.client3.ppp[1].ppp.queue queueingTime:vector ETV
attr interpolationmode none
attr source queueingTime(packetPopped)
attr title "queueing times, vector"
attr unit s
vector 450 scenario.client3.ppp[1].ppp txPk:vector(packetBytes) ETV
attr interpolationmode none
attr source packetSentToLower
attr title "packets transmitted, vector(packetBytes)"
vector 451 scenario.client1.ppp[2].ppp rxPkOk:vector(packetBytes) ETV
attr interpolationmode none
attr source rxPkOk
attr title "packets received OK, vector(packetBytes)"
vector 452 scenario.client1.ppp[2].ppp passedUpPk:vector(packetBytes) ETV
attr interpolationmode none
attr source packetSentToUpper
attr title "packets passed to higher layer, vector(packetBytes)"
vector 453 scenario.client1.tcp.conn-47 rcvSeq:vector ETV
attr interpolationmode sample-hold
vector 454 scenario.client1.tcp.conn-47 rcvAck:vector ETV
attr interpolationmode sample-hold
vector 455 scenario.client1.tcp.conn-47 sndWnd:vector ETV
attr interpolationmode sample-hold
vector 456 scenario.client1.tcp.conn-47 unacked:vector ETV
attr interpolationmode sample-hold
vector 457 scenario.client3.tcp.conn-48 rcvSeq:vector ETV
attr interpolationmode sample-hold
vector 458 scenario.client3.tcp.conn-48 rcvAck:vector ETV
attr interpolationmode sample-hold
vector 459 scenario.client3.tcp.conn-48 unacked:vector ETV
attr interpolationmode sample-hold
vector 460 scenario.client3.tcp.conn-48 cwnd:vector ETV
attr interpolationmode sample-hold
vector 461 scenario.client3.tcp.conn-48 ssthresh:vector ETV
attr interpolationmode sample-hold
vector 462 scenario.client3.tcp.conn-48 dupAcks:vector ETV
attr interpolationmode sample-hold
vector 463 scenario.client1.tcp.conn-47 rtt:vector ETV
attr interpolationmode sample-hold
vector 464 scenario.client1.tcp.conn-47 srtt:vector ETV
attr interpolationmode sample-hold
vector 465 scenario.client1.tcp.conn-47 rttvar:vector ETV
attr interpolationmode sample-hold
vector 466 scenario.client1.tcp.conn-47 rto:vector ETV
attr interpolationmode sample-hold
vector 467 scenario.client1.tcp.conn-47 cwnd:vector ETV
attr interpolationmode sample-hold
vector 468 scenario.client1.tcp.conn-47 ssthresh:vector ETV
attr interpolationmode sample-hold
vector 469 scenario.client1.tcp.conn-47 dupAcks:vector ETV
attr interpolationmode sample-hold
vector 470 scenario.client2.tcp.conn-49 tcpRcvQueueBytes:vector ETV
attr interpolationmode sample-hold
vector 471 scenario.client2.tcp.conn-49 rcvAdv:vector ETV
attr interpolationmode sample-hold
vector 472 scenario.client2.tcp.conn-49 rcvWnd:vector ETV
attr interpolationmode sample-hold
vector 473 scenario.client2.tcp.conn-49 sndAck:vector ETV
attr interpolationmode sample-hold
vector 474 scenario.client2.ppp[2].ppp rcvdPkFromHl:vector(packetBytes) ETV
attr interpolationmode none
attr source packetReceivedFromUpper
attr title "packets received from higher layer, vector(packetBytes)"
vector 475 scenario.client2.ppp[2].ppp.queue packetPushed:vector(packetBytes) ETV
attr interpolationmode none
attr title "packet pushed, vector(packetBytes)"
vector 476 scenario.client2.ppp[2].ppp.queue queueLength:vector ETV
attr interpolationmode sample-hold
attr source "count(packetPushed) - count(packetPopped) - count(packetRemoved) - count(packetDropped)"
attr title "queue length, vector"
vector 477 scenario.client2.ppp[2].ppp.queue packetPopped:vector(packetBytes) ETV
attr interpolationmode none
attr title "packet popped, vector(packetBytes)"
vector 478 scenario.client2.ppp[2].ppp.queue queueingTime:vector ETV
attr interpolationmode none
attr source queueingTime(packetPopped)
attr title "queueing times, vector"
attr unit s
vector 479 scenario.client2.ppp[2].ppp txPk:vector(packetBytes) ETV
attr interpolationmode none
attr source packetSentToLower
attr title "packets transmitted, vector(packetBytes)"
vector 480 scenario.client3.ppp[2].ppp rxPkOk:vector(packetBytes) ETV
attr interpolationmode none
attr source rxPkOk
attr title "packets received OK, vector(packetBytes)"
vector 481 scenario.client3.ppp[2].ppp passedUpPk:vector(packetBytes) ETV
attr interpolationmode none
attr source packetSentToUpper
attr title "packets passed to higher layer, vector(packetBytes)"
vector 482 scenario.client3.tcp.conn-50 rcvAdv:vector ETV
attr interpolationmode sample-hold
vector 483 scenario.client3.tcp.conn-50 sndWnd:vector ETV
attr interpolationmode sample-hold
vector 484 scenario.client3.tcp.conn-50 tcpRcvQueueBytes:vector ETV
attr interpolationmode sample-hold
vector 485 scenario.client3.tcp.conn-50 rcvWnd:vector ETV
attr interpolationmode sample-hold
vector 486 scenario.client3.tcp.conn-50 sndAck:vector ETV
attr interpolationmode sample-hold
vector 487 scenario.client3.ppp[2].ppp rcvdPkFromHl:vector(packetBytes) ETV
attr interpolationmode none
attr source packetReceivedFromUpper
attr title "packets received from higher layer, vector(packetBytes)"
vector 488 scenario.client3.ppp[2].ppp.queue packetPushed:vector(packetBytes) ETV
attr interpolationmode none
attr title "packet pushed, vector(packetBytes)"
vector 489 scenario.client3.ppp[2].ppp.queue queueLength:vector ETV
attr interpolationmode sample-hold
attr source "count(packetPushed) - count(packetPopped) - count(packetRemoved) - count(packetDropped)"
attr title "queue length, vector"
vector 490 scenario.client3.ppp[2].ppp.queue packetPopped:vector(packetBytes) ETV
attr interpolationmode none
attr title "packet popped, vector(packetBytes)"
vector 491 scenario.client3.ppp[2].ppp.queue queueingTime:vector ETV
attr interpolationmode none
attr source queueingTime(packetPopped)
attr title "queueing times, vector"
attr unit s
vector 492 scenario.client3.ppp[2].ppp txPk:vector(packetBytes) ETV
attr interpolationmode none
attr source packetSentToLower
attr title "packets transmitted, vector(packetBytes)"
vector 493 scenario.client2.ppp[2].ppp rxPkOk:vector(packetBytes) ETV
attr interpolationmode none
attr source rxPkOk
attr title "packets received OK, vector(packetBytes)"
vector 494 scenario.client2.ppp[2].ppp passedUpPk:vector(packetBytes) ETV
attr interpolationmode none
attr source packetSentToUpper
attr title "packets passed to higher layer, vector(packetBytes)"
vector 495 scenario.client2.tcp.conn-49 rcvSeq:vector ETV
attr interpolationmode sample-hold
vector 496 scenario.client2.tcp.conn-49 rcvAck:vector ETV
attr interpolationmode sample-hold
vector 497 scenario.client2.tcp.conn-49 sndWnd:vector ETV
attr interpolationmode sample-hold
vector 498 scenario.client2.tcp.conn-49 unacked:vector ETV
attr interpolationmode sample-hold
vector 499 scenario.client3.tcp.conn-50 rcvSeq:vector ETV
attr interpolationmode sample-hold
vector 500 scenario.client3.tcp.conn-50 rcvAck:vector ETV
attr interpolationmode sample-hold
vector 501 scenario.client3.tcp.conn-50 unacked:vector ETV
attr interpolationmode sample-hold
vector 502 scenario.client3.tcp.conn-50 cwnd:vector ETV
attr interpolationmode sample-hold
vector 503 scenario.client3.tcp.conn-50 ssthresh:vector ETV
attr interpolationmode sample-hold
vector 504 scenario.client3.tcp.conn-50 dupAcks:vector ETV
attr interpolationmode sample-hold
vector 505 scenario.client2.tcp.conn-49 rtt:vector ETV
attr interpolationmode sample-hold
vector 506 scenario.client2.tcp.conn-49 srtt:vector ETV
attr interpolationmode sample-hold
vector 507 scenario.client2.tcp.conn-49 rttvar:vector ETV
attr interpolationmode sample-hold
vector 508 scenario.client2.tcp.conn-49 rto:vector ETV
attr interpolationmode sample-hold
vector 509 scenario.client2.tcp.conn-49 cwnd:vector ETV
attr interpolationmode sample-hold
vector 510 scenario.client2.tcp.conn-49 ssthresh:vector ETV
attr interpolationmode sample-hold
vector 511 scenario.client2.tcp.conn-49 dupAcks:vector ETV
attr interpolationmode sample-hold
vector 512 scenario.client3.tcp.conn-51 tcpRcvQueueBytes:vector ETV
attr interpolationmode sample-hold
vector 513 scenario.client3.tcp.conn-51 rcvAdv:vector ETV
attr interpolationmode sample-hold
vector 514 scenario.client3.tcp.conn-51 rcvWnd:vector ETV
attr interpolationmode sample-hold
vector 515 scenario.client3.tcp.conn-51 sndAck:vector ETV
attr interpolationmode sample-hold
vector 516 scenario.client1.tcp.conn-52 rcvAdv:vector ETV
attr interpolationmode sample-hold
vector 517 scenario.client1.tcp.conn-52 sndWnd:vector ETV
attr interpolationmode sample-hold
vector 518 scenario.client1.tcp.conn-52 tcpRcvQueueBytes:vector ETV
attr interpolationmode sample-hold
vector 519 scenario.client1.tcp.conn-52 rcvWnd:vector ETV
attr interpolationmode sample-hold
vector 520 scenario.client1.tcp.conn-52 sndAck:vector ETV
attr interpolationmode sample-hold
vector 521 scenario.client3.tcp.conn-51 rcvSeq:vector ETV
attr interpolationmode sample-hold
vector 522 scenario.client3.tcp.conn-51 rcvAck:vector ETV
attr interpolationmode sample-hold
vector 523 scenario.client3.tcp.conn-51 sndWnd:vector ETV
attr interpolationmode sample-hold
vector 524 scenario.client3.tcp.conn-51 unacked:vector ETV
attr interpolationmode sample-hold
vector 525 scenario.client1.tcp.conn-52 rcvSeq:vector ETV
attr interpolationmode sample-hold
vector 526 scenario.client1.tcp.conn-52 rcvAck:vector ETV
attr interpolationmode sample-hold
vector 527 scenario.client1.tcp.conn-52 unacked:vector ETV
attr interpolationmode sample-hold
vector 528 scenario.client1.tcp.conn-52 cwnd:vector ETV
attr interpolationmode sample-hold
vector 529 scenario.client1.tcp.conn-52 ssthresh:vector ETV
attr interpolationmode sample-hold
vector 530 scenario.client1.tcp.conn-52 dupAcks:vector ETV
attr interpolationmode sample-hold
vector 531 scenario.client3.tcp.conn-51 rtt:vector ETV
attr interpolationmode sample-hold
vector 532 scenario.client3.tcp.conn-51 srtt:vector ETV
attr interpolationmode sample-hold
vector 533 scenario.client3.tcp.conn-51 rttvar:vector ETV
attr interpolationmode sample-hold
vector 534 scenario.client3.tcp.conn-51 rto:vector ETV
attr interpolationmode sample-hold
vector 535 scenario.client3.tcp.conn-51 cwnd:vector ETV
attr interpolationmode sample-hold
vector 536 scenario.client3.tcp.conn-51 ssthresh:vector ETV
attr interpolationmode sample-hold
vector 537 scenario.client3.tcp.conn-51 dupAcks:vector ETV
attr interpolationmode sample-hold
vector 538 scenario.client3.tcp.conn-53 tcpRcvQueueBytes:vector ETV
attr interpolationmode sample-hold
vector 539 scenario.client3.tcp.conn-53 rcvAdv:vector ETV
attr interpolationmode sample-hold
vector 540 scenario.client3.tcp.conn-53 rcvWnd:vector ETV
attr interpolationmode sample-hold
vector 541 scenario.client3.tcp.conn-53 sndAck:vector ETV
attr interpolationmode sample-hold
vector 542 scenario.client2.tcp.conn-54 rcvAdv:vector ETV
attr interpolationmode sample-hold
vector 543 scenario.client2.tcp.conn-54 sndWnd:vector ETV
attr interpolationmode sample-hold
vector 544 scenario.client2.tcp.conn-54 tcpRcvQueueBytes:vector ETV
attr interpolationmode sample-hold
vector 545 scenario.client2.tcp.conn-54 rcvWnd:vector ETV
attr interpolationmode sample-hold
vector 546 scenario.client2.tcp.conn-54 sndAck:vector ETV
attr interpolationmode sample-hold
vector 547 scenario.client3.tcp.conn-53 rcvSeq:vector ETV
attr interpolationmode sample-hold
vector 548 scenario.client3.tcp.conn-53 rcvAck:vector ETV
attr interpolationmode sample-hold
vector 549 scenario.client3.tcp.conn-53 sndWnd:vector ETV
attr interpolationmode sample-hold
vector 550 scenario.client3.tcp.conn-53 unacked:vector ETV
attr interpolationmode sample-hold
vector 551 scenario.client2.tcp.conn-54 rcvSeq:vector ETV
attr interpolationmode sample-hold
vector 552 scenario.client2.tcp.conn-54 rcvAck:vector ETV
attr interpolationmode sample-hold
vector 553 scenario.client2.tcp.conn-54 unacked:vector ETV
attr interpolationmode sample-hold
vector 554 scenario.client2.tcp.conn-54 cwnd:vector ETV
attr interpolationmode sample-hold
vector 555 scenario.client2.tcp.conn-54 ssthresh:vector ETV
attr interpolationmode sample-hold
vector 556 scenario.client2.tcp.conn-54 dupAcks:vector ETV
attr interpolationmode sample-hold
vector 557 scenario.client3.tcp.conn-53 rtt:vector ETV
attr interpolationmode sample-hold
vector 558 scenario.client3.tcp.conn-53 srtt:vector ETV
attr interpolationmode sample-hold
vector 559 scenario.client3.tcp.conn-53 rttvar:vector ETV
attr interpolationmode sample-hold
vector 560 scenario.client3.tcp.conn-53 rto:vector ETV
attr interpolationmode sample-hold
vector 561 scenario.client3.tcp.conn-53 cwnd:vector ETV
attr interpolationmode sample-hold
vector 562 scenario.client3.tcp.conn-53 ssthresh:vector ETV
attr interpolationmode sample-hold
vector 563 scenario.client3.tcp.conn-53 dupAcks:vector ETV
attr interpolationmode sample-hold
vector 564 scenario.client1.tcp.conn-55 tcpRcvQueueBytes:vector ETV
attr interpolationmode sample-hold
vector 565 scenario.client1.tcp.conn-55 rcvAdv:vector ETV
attr interpolationmode sample-hold
vector 566 scenario.client1.tcp.conn-55 rcvWnd:vector ETV
attr interpolationmode sample-hold
vector 567 scenario.client1.tcp.conn-55 sndAck:vector ETV
attr interpolationmode sample-hold
vector 568 scenario.client0.tcp.conn-56 rcvAdv:vector ETV
attr interpolationmode sample-hold
vector 569 scenario.client0.tcp.conn-56 sndWnd:vector ETV
attr interpolationmode sample-hold
vector 570 scenario.client0.tcp.conn-56 tcpRcvQueueBytes:vector ETV
attr interpolationmode sample-hold
vector 571 scenario.client0.tcp.conn-56 rcvWnd:vector ETV
attr interpolationmode sample-hold
vector 572 scenario.client0.tcp.conn-56 sndAck:vector ETV
attr interpolationmode sample-hold
vector 573 scenario.client1.tcp.conn-55 rcvSeq:vector ETV
attr interpolationmode sample-hold
vector 574 scenario.client1.tcp.conn-55 rcvAck:vector ETV
attr interpolationmode sample-hold
vector 575 scenario.client1.tcp.conn-55 sndWnd:vector ETV
attr interpolationmode sample-hold
vector 576 scenario.client1.tcp.conn-55 unacked:vector ETV
attr interpolationmode sample-hold
vector 577 scenario.client0.tcp.conn-56 rcvSeq:vector ETV
attr interpolationmode sample-hold
vector 578 scenario.client0.tcp.conn-56 rcvAck:vector ETV
attr interpolationmode sample-hold
vector 579 scenario.client0.tcp.conn-56 unacked:vector ETV
attr interpolationmode sample-hold
vector 580 scenario.client0.tcp.conn-56 cwnd:vector ETV
attr interpolationmode sample-hold
vector 581 scenario.client0.tcp.conn-56 ssthresh:vector ETV
attr interpolationmode sample-hold
vector 582 scenario.client0.tcp.conn-56 dupAcks:vector ETV
attr interpolationmode sample-hold
vector 583 scenario.client1.tcp.conn-55 rtt:vector ETV
attr interpolationmode sample-hold
vector 584 scenario.client1.tcp.conn-55 srtt:vector ETV
attr interpolationmode sample-hold
vector 585 scenario.client1.tcp.conn-55 rttvar:vector ETV
attr interpolationmode sample-hold
vector 586 scenario.client1.tcp.conn-55 rto:vector ETV
attr interpolationmode sample-hold
vector 587 scenario.client1.tcp.conn-55 cwnd:vector ETV
attr interpolationmode sample-hold
vector 588 scenario.client1.tcp.conn-55 ssthresh:vector ETV
attr interpolationmode sample-hold
vector 589 scenario.client1.tcp.conn-55 dupAcks:vector ETV
attr interpolationmode sample-hold
vector 590 scenario.client2.tcp.conn-57 tcpRcvQueueBytes:vector ETV
attr interpolationmode sample-hold
vector 591 scenario.client2.tcp.conn-57 rcvAdv:vector ETV
attr interpolationmode sample-hold
vector 592 scenario.client2.tcp.conn-57 rcvWnd:vector ETV
attr interpolationmode sample-hold
vector 593 scenario.client2.tcp.conn-57 sndAck:vector ETV
attr interpolationmode sample-hold
vector 594 scenario.client0.tcp.conn-58 rcvAdv:vector ETV
attr interpolationmode sample-hold
vector 595 scenario.client0.tcp.conn-58 sndWnd:vector ETV
attr interpolationmode sample-hold
vector 596 scenario.client0.tcp.conn-58 tcpRcvQueueBytes:vector ETV
attr interpolationmode sample-hold
vector 597 scenario.client0.tcp.conn-58 rcvWnd:vector ETV
attr interpolationmode sample-hold
vector 598 scenario.client0.tcp.conn-58 sndAck:vector ETV
attr interpolationmode sample-hold
vector 599 scenario.client2.tcp.conn-57 rcvSeq:vector ETV
attr interpolationmode sample-hold
vector 600 scenario.client2.tcp.conn-57 rcvAck:vector ETV
attr interpolationmode sample-hold
vector 601 scenario.client2.tcp.conn-57 sndWnd:vector ETV
attr interpolationmode sample-hold
vector 602 scenario.client2.tcp.conn-57 unacked:vector ETV
attr interpolationmode sample-hold
vector 603 scenario.client0.tcp.conn-58 rcvSeq:vector ETV
attr interpolationmode sample-hold
vector 604 scenario.client0.tcp.conn-58 rcvAck:vector ETV
attr interpolationmode sample-hold
vector 605 scenario.client0.tcp.conn-58 unacked:vector ETV
attr interpolationmode sample-hold
vector 606 scenario.client0.tcp.conn-58 cwnd:vector ETV
attr interpolationmode sample-hold
vector 607 scenario.client0.tcp.conn-58 ssthresh:vector ETV
attr interpolationmode sample-hold
vector 608 scenario.client0.tcp.conn-58 dupAcks:vector ETV
attr interpolationmode sample-hold
vector 609 scenario.client2.tcp.conn-57 rtt:vector ETV
attr interpolationmode sample-hold
vector 610 scenario.client2.tcp.conn-57 srtt:vector ETV
attr interpolationmode sample-hold
vector 611 scenario.client2.tcp.conn-57 rttvar:vector ETV
attr interpolationmode sample-hold
vector 612 scenario.client2.tcp.conn-57 rto:vector ETV
attr interpolationmode sample-hold
vector 613 scenario.client2.tcp.conn-57 cwnd:vector ETV
attr interpolationmode sample-hold
vector 614 scenario.client2.tcp.conn-57 ssthresh:vector ETV
attr interpolationmode sample-hold
vector 615 scenario.client2.tcp.conn-57 dupAcks:vector ETV
attr interpolationmode sample-hold
vector 616 scenario.client3.tcp.conn-59 tcpRcvQueueBytes:vector ETV
attr interpolationmode sample-hold
vector 617 scenario.client3.tcp.conn-59 rcvAdv:vector ETV
attr interpolationmode sample-hold
vector 618 scenario.client3.tcp.conn-59 rcvWnd:vector ETV
attr interpolationmode sample-hold
vector 619 scenario.client3.tcp.conn-59 sndAck:vector ETV
attr interpolationmode sample-hold
vector 620 scenario.client0.tcp.conn-60 rcvAdv:vector ETV
attr interpolationmode sample-hold
vector 621 scenario.client0.tcp.conn-60 sndWnd:vector ETV
attr interpolationmode sample-hold
vector 622 scenario.client0.tcp.conn-60 tcpRcvQueueBytes:vector ETV
attr interpolationmode sample-hold
vector 623 scenario.client0.tcp.conn-60 rcvWnd:vector ETV
attr interpolationmode sample-hold
vector 624 scenario.client0.tcp.conn-60 sndAck:vector ETV
attr interpolationmode sample-hold
vector 625 scenario.client3.tcp.conn-59 rcvSeq:vector ETV
attr interpolationmode sample-hold
vector 626 scenario.client3.tcp.conn-59 rcvAck:vector ETV
attr interpolationmode sample-hold
vector 627 scenario.client3.tcp.conn-59 sndWnd:vector ETV
attr interpolationmode sample-hold
vector 628 scenario.client3.tcp.conn-59 unacked:vector ETV
attr interpolationmode sample-hold
vector 629 scenario.client0.tcp.conn-60 rcvSeq:vector ETV
attr interpolationmode sample-hold
vector 630 scenario.client0.tcp.conn-60 rcvAck:vector ETV
attr interpolationmode sample-hold
vector 631 scenario.client0.tcp.conn-60 unacked:vector ETV
attr interpolationmode sample-hold
vector 632 scenario.client0.tcp.conn-60 cwnd:vector ETV
attr interpolationmode sample-hold
vector 633 scenario.client0.tcp.conn-60 ssthresh:vector ETV
attr interpolationmode sample-hold
vector 634 scenario.client0.tcp.conn-60 dupAcks:vector ETV
attr interpolationmode sample-hold
vector 635 scenario.client3.tcp.conn-59 rtt:vector ETV
attr interpolationmode sample-hold
vector 636 scenario.client3.tcp.conn-59 srtt:vector ETV
attr interpolationmode sample-hold
vector 637 scenario.client3.tcp.conn-59 rttvar:vector ETV
attr interpolationmode sample-hold
vector 638 scenario.client3.tcp.conn-59 rto:vector ETV
attr interpolationmode sample-hold
vector 639 scenario.client3.tcp.conn-59 cwnd:vector ETV
attr interpolationmode sample-hold
vector 640 scenario.client3.tcp.conn-59 ssthresh:vector ETV
attr interpolationmode sample-hold
vector 641 scenario.client3.tcp.conn-59 dupAcks:vector ETV
attr interpolationmode sample-hold
vector 642 scenario.client2.tcp.conn-61 tcpRcvQueueBytes:vector ETV
attr interpolationmode sample-hold
vector 643 scenario.client2.tcp.conn-61 rcvAdv:vector ETV
attr interpolationmode sample-hold
vector 644 scenario.client2.tcp.conn-61 rcvWnd:vector ETV
attr interpolationmode sample-hold
vector 645 scenario.client2.tcp.conn-61 sndAck:vector ETV
attr interpolationmode sample-hold
vector 646 scenario.client2.ppp[1].ppp rcvdPkFromHl:vector(packetBytes) ETV
attr interpolationmode none
attr source packetReceivedFromUpper
attr title "packets received from higher layer, vector(packetBytes)"
vector 647 scenario.client2.ppp[1].ppp.queue packetPushed:vector(packetBytes) ETV
attr interpolationmode none
attr title "packet pushed, vector(packetBytes)"
vector 648 scenario.client2.ppp[1].ppp.queue queueLength:vector ETV
attr interpolationmode sample-hold
attr source "count(packetPushed) - count(packetPopped) - count(packetRemoved) - count(packetDropped)"
attr title "queue length, vector"
vector 649 scenario.client2.ppp[1].ppp.queue packetPopped:vector(packetBytes) ETV
attr interpolationmode none
attr title "packet popped, vector(packetBytes)"
vector 650 scenario.client2.ppp[1].ppp.queue queueingTime:vector ETV
attr interpolationmode none
attr source queueingTime(packetPopped)
attr title "queueing times, vector"
attr unit s
vector 651 scenario.client2.ppp[1].ppp txPk:vector(packetBytes) ETV
attr interpolationmode none
attr source packetSentToLower
attr title "packets transmitted, vector(packetBytes)"
vector 652 scenario.client1.ppp[1].ppp rxPkOk:vector(packetBytes) ETV
attr interpolationmode none
attr source rxPkOk
attr title "packets received OK, vector(packetBytes)"
vector 653 scenario.client1.ppp[1].ppp passedUpPk:vector(packetBytes) ETV
attr interpolationmode none
attr source packetSentToUpper
attr title "packets passed to higher layer, vector(packetBytes)"
vector 654 scenario.client1.tcp.conn-62 rcvAdv:vector ETV
attr interpolationmode sample-hold
vector 655 scenario.client1.tcp.conn-62 sndWnd:vector ETV
attr interpolationmode sample-hold
vector 656 scenario.client1.tcp.conn-62 tcpRcvQueueBytes:vector ETV
attr interpolationmode sample-hold
vector 657 scenario.client1.tcp.conn-62 rcvWnd:vector ETV
attr interpolationmode sample-hold
vector 658 scenario.client1.tcp.conn-62 sndAck:vector ETV
attr interpolationmode sample-hold
vector 659 scenario.client1.ppp[1].ppp rcvdPkFromHl:vector(packetBytes) ETV
attr interpolationmode none
attr source packetReceivedFromUpper
attr title "packets received from higher layer, vector(packetBytes)"
vector 660 scenario.client1.ppp[1].ppp.queue packetPushed:vector(packetBytes) ETV
attr interpolationmode none
attr title "packet pushed, vector(packetBytes)"
vector 661 scenario.client1.ppp[1].ppp.queue queueLength:vector ETV
attr interpolationmode sample-hold
attr source "count(packetPushed) - count(packetPopped) - count(packetRemoved) - count(packetDropped)"
attr title "queue length, vector"
vector 662 scenario.client1.ppp[1].ppp.queue packetPopped:vector(packetBytes) ETV
attr interpolationmode none
attr title "packet popped, vector(packetBytes)"
vector 663 scenario.client1.ppp[1].ppp.queue queueingTime:vector ETV
attr interpolationmode none
[...]
648	913	3.851175600452	1
648	913	3.851175600452	0
648	1063	3.959497790826	1
648	1063	3.959497790826	0
648	1210	4.055744311532	1
648	1210	4.055744311532	0
648	1263	4.101897156041	1
648	1263	4.101897156041	0
648	1321	4.104049156041	1
648	1321	4.104049156041	0
648	1492	4.116162930753	1
648	1492	4.116162930753	0
648	1510	4.136030480422	1
648	1510	4.136030480422	0
648	1723	4.37335722428	1
648	1723	4.37335722428	0
648	1817	4.482128302378	1
648	1817	4.482128302378	0
648	2451	5.084759384502	1
648	2451	5.084759384502	0
648	2593	5.367877523361	1
648	2593	5.367877523361	0
648	2653	5.536239399029	1
648	2653	5.536239399029	0
648	2706	5.713195494857	1
648	2706	5.713195494857	0
648	2736	5.860529080721	1
648	2736	5.860529080721	0
648	2824	6.444142241767	1
648	2824	6.444142241767	0
649	788	3.722767786371	44
649	801	3.724583786371	41
649	864	3.829859309671	41
649	886	3.849383600452	44
649	913	3.851175600452	40
649	1063	3.959497790826	42
649	1210	4.055744311532	40
649	1263	4.101897156041	41
649	1321	4.104049156041	40
649	1492	4.116162930753	40
649	1510	4.136030480422	41
649	1723	4.37335722428	40
649	1817	4.482128302378	40
649	2451	5.084759384502	41
649	2593	5.367877523361	40
649	2653	5.536239399029	40
649	2706	5.713195494857	41
649	2736	5.860529080721	41
649	2824	6.444142241767	40
650	788	3.722767786371	0
650	801	3.724583786371	0
650	864	3.829859309671	0
650	886	3.849383600452	0
650	913	3.851175600452	0
650	1063	3.959497790826	0
650	1210	4.055744311532	0
650	1263	4.101897156041	0
650	1321	4.104049156041	0
650	1492	4.116162930753	0
650	1510	4.136030480422	0
650	1723	4.37335722428	0
650	1817	4.482128302378	0
650	2451	5.084759384502	0
650	2593	5.367877523361	0
650	2653	5.536239399029	0
650	2706	5.713195494857	0
650	2736	5.860529080721	0
650	2824	6.444142241767	0
651	788	3.722767786371	51
651	801	3.724583786371	48
651	864	3.829859309671	48
651	886	3.849383600452	51
651	913	3.851175600452	47
651	1063	3.959497790826	49
651	1210	4.055744311532	47
651	1263	4.101897156041	48
651	1321	4.104049156041	47
651	1492	4.116162930753	47
651	1510	4.136030480422	48
651	1723	4.37335722428	47
651	1817	4.482128302378	47
651	2451	5.084759384502	48
651	2593	5.367877523361	47
651	2653	5.536239399029	47
651	2706	5.713195494857	48
651	2736	5.860529080721	48
651	2824	6.444142241767	47
652	790	3.723675786371	51
652	803	3.725467786371	48
652	866	3.830743309671	48
652	893	3.850291600452	51
652	920	3.852051600452	47
652	1075	3.960389790826	49
652	1212	4.056620311532	47
652	1265	4.102781156041	48
652	1339	4.104925156041	47
652	1501	4.117038930753	47
652	1512	4.136914480422	48
652	1725	4.37423322428	47
652	1826	4.483004302378	47
652	2453	5.085643384502	48
652	2595	5.368753523361	47
652	2655	5.537115399029	47
652	2708	5.714079494857	48
652	2738	5.861413080721	48
652	2826	6.445018241767	47
653	790	3.723675786371	44
653	803	3.725467786371	41
653	866	3.830743309671	41
653	893	3.850291600452	44
653	920	3.852051600452	40
653	1075	3.960389790826	42
653	1212	4.056620311532	40
653	1265	4.102781156041	41
653	1339	4.104925156041	40
653	1501	4.117038930753	40
653	1512	4.136914480422	41
653	1725	4.37423322428	40
653	1826	4.483004302378	40
653	2453	5.085643384502	41
653	2595	5.368753523361	40
653	2655	5.537115399029	40
653	2708	5.714079494857	41
653	2738	5.861413080721	41
653	2826	6.445018241767	40
654	792	3.723675786371	938196
654	792	3.723675786371	938196
654	805	3.725467786371	938196
654	868	3.830743309671	938198
654	1081	3.960389790826	938200
654	1267	4.102781156041	938201
654	1514	4.136914480422	938202
654	2455	5.085643384502	938203
654	2710	5.714079494857	938204
654	2740	5.861413080721	938205
655	792	3.723675786371	7504
655	805	3.725467786371	7504
656	792	3.723675786371	0
656	805	3.725467786371	0
656	805	3.725467786371	1
656	868	3.830743309671	0
656	868	3.830743309671	0
656	1081	3.960389790826	0
656	1081	3.960389790826	0
656	1267	4.102781156041	0
656	1267	4.102781156041	0
656	1514	4.136914480422	0
656	1514	4.136914480422	0
656	2455	5.085643384502	0
656	2455	5.085643384502	0
656	2710	5.714079494857	0
656	2710	5.714079494857	0
656	2740	5.861413080721	0
656	2740	5.861413080721	0
657	792	3.723675786371	7504
657	805	3.725467786371	7503
657	868	3.830743309671	7504
657	1081	3.960389790826	7504
657	1267	4.102781156041	7504
657	1514	4.136914480422	7504
657	2455	5.085643384502	7504
657	2710	5.714079494857	7504
657	2740	5.861413080721	7504
658	792	3.723675786371	930692
658	805	3.725467786371	930693
658	868	3.830743309671	930694
658	1081	3.960389790826	930696
658	1267	4.102781156041	930697
658	1514	4.136914480422	930698
658	2455	5.085643384502	930699
658	2710	5.714079494857	930700
658	2740	5.861413080721	930701
659	794	3.723675786371	44
659	809	3.725467786371	40
659	871	3.830743309671	40
659	880	3.848475600452	44
659	898	3.850291600452	41
659	1090	3.960389790826	40
659	1203	4.054860311532	41
659	1274	4.102781156041	40
659	1280	4.102781156041	42
659	1480	4.115278930753	41
659	1517	4.136914480422	40
659	1716	4.37247322428	41
659	1806	4.481244302378	41
659	2458	5.085643384502	40
659	2586	5.366993523361	41
659	2646	5.535355399029	41
659	2713	5.714079494857	40
659	2743	5.861413080721	40
659	2817	6.443258241767	41
660	794	3.723675786371	44
660	809	3.725467786371	40
660	871	3.830743309671	40
660	880	3.848475600452	44
660	898	3.850291600452	41
660	1090	3.960389790826	40
660	1203	4.054860311532	41
660	1274	4.102781156041	40
660	1280	4.102781156041	42
660	1480	4.115278930753	41
660	1517	4.136914480422	40
660	1716	4.37247322428	41
660	1806	4.481244302378	41
660	2458	5.085643384502	40
660	2586	5.366993523361	41
660	2646	5.535355399029	41
660	2713	5.714079494857	40
660	2743	5.861413080721	40
660	2817	6.443258241767	41
661	794	3.723675786371	1
661	794	3.723675786371	0
661	809	3.725467786371	1
661	809	3.725467786371	0
661	871	3.830743309671	1
661	871	3.830743309671	0
661	880	3.848475600452	1
661	880	3.848475600452	0
661	898	3.850291600452	1
661	898	3.850291600452	0
661	1090	3.960389790826	1
661	1090	3.960389790826	0
661	1203	4.054860311532	1
661	1203	4.054860311532	0
661	1274	4.102781156041	1
661	1274	4.102781156041	0
661	1280	4.102781156041	1
661	1283	4.103157156041	0
661	1480	4.115278930753	1
661	1480	4.115278930753	0
661	1517	4.136914480422	1
661	1517	4.136914480422	0
661	1716	4.37247322428	1
661	1716	4.37247322428	0
661	1806	4.481244302378	1
661	1806	4.481244302378	0
661	2458	5.085643384502	1
661	2458	5.085643384502	0
661	2586	5.366993523361	1
661	2586	5.366993523361	0
661	2646	5.535355399029	1
661	2646	5.535355399029	0
661	2713	5.714079494857	1
661	2713	5.714079494857	0
661	2743	5.861413080721	1
661	2743	5.861413080721	0
661	2817	6.443258241767	1
661	2817	6.443258241767	0
662	794	3.723675786371	44
662	809	3.725467786371	40
662	871	3.830743309671	40
662	880	3.848475600452	44
662	898	3.850291600452	41
662	1090	3.960389790826	40
662	1203	4.054860311532	41
662	1274	4.102781156041	40
662	1283	4.103157156041	42
662	1480	4.115278930753	41
662	1517	4.136914480422	40
662	1716	4.37247322428	41
662	1806	4.481244302378	41
662	2458	5.085643384502	40
662	2586	5.366993523361	41
662	2646	5.535355399029	41
662	2713	5.714079494857	40
662	2743	5.861413080721	40
662	2817	6.443258241767	41
663	794	3.723675786371	0
663	809	3.725467786371	0
663	871	3.830743309671	0
663	880	3.848475600452	0
663	898	3.850291600452	0
663	1090	3.960389790826	0
663	1203	4.054860311532	0
663	1274	4.102781156041	0
663	1283	4.103157156041	0.000376
663	1480	4.115278930753	0
663	1517	4.136914480422	0
663	1716	4.37247322428	0
663	1806	4.481244302378	0
663	2458	5.085643384502	0
663	2586	5.366993523361	0
663	2646	5.535355399029	0
663	2713	5.714079494857	0
663	2743	5.861413080721	0
663	2817	6.443258241767	0
664	794	3.723675786371	51
664	809	3.725467786371	47
664	871	3.830743309671	47
664	880	3.848475600452	51
664	898	3.850291600452	48
664	1090	3.960389790826	47
664	1203	4.054860311532	48
664	1274	4.102781156041	47
664	1283	4.103157156041	49
664	1480	4.115278930753	48
664	1517	4.136914480422	47
664	1716	4.37247322428	48
664	1806	4.481244302378	48
664	2458	5.085643384502	47
664	2586	5.366993523361	48
664	2646	5.535355399029	48
664	2713	5.714079494857	47
664	2743	5.861413080721	47
664	2817	6.443258241767	48
665	796	3.724583786371	51
665	813	3.726343786371	47
665	873	3.831619309671	47
665	882	3.849383600452	51
665	907	3.851175600452	48
665	1103	3.961265790826	47
665	1205	4.055744311532	48
665	1288	4.103657156041	47
665	1313	4.104049156041	49
665	1487	4.116162930753	48
665	1519	4.137790480422	47
665	1718	4.37335722428	48
665	1812	4.482128302378	48
665	2460	5.086519384502	47
665	2588	5.367877523361	48
665	2648	5.536239399029	48
665	2715	5.714955494857	47
665	2745	5.862289080721	47
665	2819	6.444142241767	48
666	796	3.724583786371	44
666	813	3.726343786371	40
666	873	3.831619309671	40
666	882	3.849383600452	44
666	907	3.851175600452	41
666	1103	3.961265790826	40
666	1205	4.055744311532	41
666	1288	4.103657156041	40
666	1313	4.104049156041	42
666	1487	4.116162930753	41
666	1519	4.137790480422	40
666	1718	4.37335722428	41
666	1812	4.482128302378	41
666	2460	5.086519384502	40
666	2588	5.367877523361	41
666	2648	5.536239399029	41
666	2715	5.714955494857	40
666	2745	5.862289080721	40
666	2819	6.444142241767	41
667	798	3.724583786371	930918
667	815	3.726343786371	930919
667	875	3.831619309671	930919
667	1109	3.961265790826	930919
667	1290	4.103657156041	930919
667	1521	4.137790480422	930919
667	2462	5.086519384502	930919
667	2717	5.714955494857	930919
667	2747	5.862289080721	930919
668	798	3.724583786371	930692
668	815	3.726343786371	930693
668	875	3.831619309671	930694
668	1109	3.961265790826	930696
668	1290	4.103657156041	930697
668	1521	4.137790480422	930698
668	2462	5.086519384502	930699
668	2717	5.714955494857	930700
668	2747	5.862289080721	930701
669	798	3.724583786371	7504
669	815	3.726343786371	7503
669	875	3.831619309671	7504
669	1109	3.961265790826	7504
669	1290	4.103657156041	7504
669	1521	4.137790480422	7504
669	2462	5.086519384502	7504
669	2717	5.714955494857	7504
669	2747	5.862289080721	7504
670	798	3.724583786371	1
670	815	3.726343786371	0
670	862	3.829859309671	1
670	875	3.831619309671	0
670	1054	3.959497790826	2
670	1109	3.961265790826	0
670	1261	4.101897156041	1
670	1290	4.103657156041	0
670	1508	4.136030480422	1
670	1521	4.137790480422	0
670	2449	5.084759384502	1
670	2462	5.086519384502	0
670	2704	5.713195494857	1
670	2717	5.714955494857	0
670	2734	5.860529080721	1
670	2747	5.862289080721	0
671	805	3.725467786371	930692
671	868	3.830743309671	930693
671	1081	3.960389790826	930694
671	1267	4.102781156041	930696
671	1514	4.136914480422	930697
671	2455	5.085643384502	930698
671	2710	5.714079494857	930699
671	2740	5.861413080721	930700
672	805	3.725467786371	930919
672	868	3.830743309671	930919
672	1081	3.960389790826	930919
672	1267	4.102781156041	930919
672	1514	4.136914480422	930919
672	2455	5.085643384502	930919
672	2710	5.714079494857	930919
672	2740	5.861413080721	930919
673	805	3.725467786371	0
674	805	3.725467786371	1072
675	805	3.725467786371	4294967295
676	805	3.725467786371	0
676	868	3.830743309671	0
676	1081	3.960389790826	0
676	1267	4.102781156041	0
676	1514	4.136914480422	0
676	2455	5.085643384502	0
676	2710	5.714079494857	0
676	2740	5.861413080721	0
677	815	3.726343786371	0.00176
677	875	3.831619309671	0.00176
677	1109	3.961265790826	0.001768
677	1290	4.103657156041	0.00176
677	1521	4.137790480422	0.00176
677	2462	5.086519384502	0.00176
677	2717	5.714955494857	0.00176
677	2747	5.862289080721	0.00176
678	815	3.726343786371	0.00022
678	875	3.831619309671	0.0004125
678	1109	3.961265790826	0.0005819375
678	1290	4.103657156041	0.000729195313
678	1521	4.137790480422	0.000858045899
678	2462	5.086519384502	0.000970790162
678	2717	5.714955494857	0.001069441392
678	2747	5.862289080721	0.001155761218
679	815	3.726343786371	0.65647
679	875	3.831619309671	0.57460375
679	1109	3.961265790826	0.50294771875
679	1290	4.103657156041	0.440226511719
679	1521	4.137790480422	0.38532704834
679	2462	5.086519384502	0.33727391156
679	2717	5.714955494857	0.295213323845
679	2747	5.862289080721	0.25839797819
680	815	3.726343786371	2.6261
680	875	3.831619309671	2.2988275
680	1109	3.961265790826	2.0123728125
680	1290	4.103657156041	1.761635242189
680	1521	4.137790480422	1.542166239259
680	2462	5.086519384502	1.350066436402
680	2717	5.714955494857	1.181922736772
680	2747	5.862289080721	1.034747673978
681	815	3.726343786371	1072
681	875	3.831619309671	1608
681	1109	3.961265790826	2144
681	1290	4.103657156041	2680
681	1521	4.137790480422	3216
681	2462	5.086519384502	3752
681	2717	5.714955494857	4288
681	2747	5.862289080721	4824
682	815	3.726343786371	4294967295
682	875	3.831619309671	4294967295
682	1109	3.961265790826	4294967295
682	1290	4.103657156041	4294967295
682	1521	4.137790480422	4294967295
682	2462	5.086519384502	4294967295
682	2717	5.714955494857	4294967295
682	2747	5.862289080721	4294967295
683	815	3.726343786371	0
683	875	3.831619309671	0
683	1109	3.961265790826	0
683	1290	4.103657156041	0
683	1521	4.137790480422	0
683	2462	5.086519384502	0
683	2717	5.714955494857	0
683	2747	5.862289080721	0
684	877	3.848475600452	0
684	895	3.850291600452	0
684	1201	4.054860311532	0
684	1271	4.102781156041	0
684	1478	4.115278930753	0
684	1714	4.37247322428	0
684	1804	4.481244302378	0
684	2584	5.366993523361	0
684	2644	5.535355399029	0
684	2815	6.443258241767	0
685	877	3.848475600452	7504
685	895	3.850291600452	969850
685	895	3.850291600452	969850
685	1201	4.054860311532	969850
685	1271	4.102781156041	969850
685	1478	4.115278930753	969850
685	1714	4.37247322428	969850
685	1804	4.481244302378	969850
685	2584	5.366993523361	969850
685	2644	5.535355399029	969850
685	2815	6.443258241767	969850
686	877	3.848475600452	7504
686	895	3.850291600452	7504
686	1201	4.054860311532	7504
686	1271	4.102781156041	7504
686	1478	4.115278930753	7504
686	1714	4.37247322428	7504
686	1804	4.481244302378	7504
686	2584	5.366993523361	7504
686	2644	5.535355399029	7504
686	2815	6.443258241767	7504
687	877	3.848475600452	0
687	895	3.850291600452	962346
687	1201	4.054860311532	962346
687	1271	4.102781156041	962346
687	1478	4.115278930753	962346
687	1714	4.37247322428	962346
687	1804	4.481244302378	962346
687	2584	5.366993523361	962346
687	2644	5.535355399029	962346
687	2815	6.443258241767	962346
688	884	3.849383600452	969623
688	884	3.849383600452	969623
688	909	3.851175600452	969623
688	1207	4.055744311532	969625
688	1318	4.104049156041	969627
688	1489	4.116162930753	969628
688	1720	4.37335722428	969629
688	1814	4.482128302378	969630
688	2590	5.367877523361	969631
688	2650	5.536239399029	969632
688	2821	6.444142241767	969633
689	884	3.849383600452	7504
689	909	3.851175600452	7504
690	884	3.849383600452	0
690	909	3.851175600452	0
690	909	3.851175600452	1
690	1207	4.055744311532	0
690	1207	4.055744311532	0
690	1318	4.104049156041	0
690	1318	4.104049156041	0
690	1489	4.116162930753	0
690	1489	4.116162930753	0
690	1720	4.37335722428	0
690	1720	4.37335722428	0
690	1814	4.482128302378	0
690	1814	4.482128302378	0
690	2590	5.367877523361	0
690	2590	5.367877523361	0
690	2650	5.536239399029	0
690	2650	5.536239399029	0
690	2821	6.444142241767	0
690	2821	6.444142241767	0
691	884	3.849383600452	7504
691	909	3.851175600452	7503
691	1207	4.055744311532	7504
691	1318	4.104049156041	7504
691	1489	4.116162930753	7504
691	1720	4.37335722428	7504
691	1814	4.482128302378	7504
691	2590	5.367877523361	7504
691	2650	5.536239399029	7504
691	2821	6.444142241767	7504
692	884	3.849383600452	962119
692	909	3.851175600452	962120
692	1207	4.055744311532	962121
692	1318	4.104049156041	962123
692	1489	4.116162930753	962124
692	1720	4.37335722428	962125
692	1814	4.482128302378	962126
692	2590	5.367877523361	962127
692	2650	5.536239399029	962128
692	2821	6.444142241767	962129
693	895	3.850291600452	962345
693	922	3.852051600452	962346
693	1214	4.056620311532	962346
693	1341	4.104925156041	962346
693	1503	4.117038930753	962346
693	1727	4.37423322428	962346
693	1828	4.483004302378	962346
693	2597	5.368753523361	962346
693	2657	5.537115399029	962346
693	2828	6.445018241767	962346
694	895	3.850291600452	962119
694	922	3.852051600452	962120
694	1214	4.056620311532	962121
694	1341	4.104925156041	962123
694	1503	4.117038930753	962124
694	1727	4.37423322428	962125
694	1828	4.483004302378	962126
694	2597	5.368753523361	962127
694	2657	5.537115399029	962128
694	2828	6.445018241767	962129
695	895	3.850291600452	7504
695	922	3.852051600452	7503
695	1214	4.056620311532	7504
695	1341	4.104925156041	7504
695	1503	4.117038930753	7504
695	1727	4.37423322428	7504
695	1828	4.483004302378	7504
695	2597	5.368753523361	7504
695	2657	5.537115399029	7504
695	2828	6.445018241767	7504
696	895	3.850291600452	1
696	922	3.852051600452	0
696	1201	4.054860311532	1
696	1214	4.056620311532	0
696	1271	4.102781156041	2
696	1341	4.104925156041	0
696	1478	4.115278930753	1
696	1503	4.117038930753	0
696	1714	4.37247322428	1
696	1727	4.37423322428	0
696	1804	4.481244302378	1
696	1828	4.483004302378	0
696	2584	5.366993523361	1
696	2597	5.368753523361	0
696	2644	5.535355399029	1
696	2657	5.537115399029	0
696	2815	6.443258241767	1
696	2828	6.445018241767	0
697	909	3.851175600452	962119
697	1207	4.055744311532	962120
697	1318	4.104049156041	962121
697	1489	4.116162930753	962123
697	1720	4.37335722428	962124
697	1814	4.482128302378	962125
697	2590	5.367877523361	962126
697	2650	5.536239399029	962127
697	2821	6.444142241767	962128
698	909	3.851175600452	962346
698	1207	4.055744311532	962346
698	1318	4.104049156041	962346
698	1489	4.116162930753	962346
698	1720	4.37335722428	962346
698	1814	4.482128302378	962346
698	2590	5.367877523361	962346
698	2650	5.536239399029	962346
698	2821	6.444142241767	962346
699	909	3.851175600452	0
700	909	3.851175600452	1072
701	909	3.851175600452	4294967295
702	909	3.851175600452	0
702	1207	4.055744311532	0
702	1318	4.104049156041	0
702	1489	4.116162930753	0
702	1720	4.37335722428	0
702	1814	4.482128302378	0
702	2590	5.367877523361	0
702	2650	5.536239399029	0
702	2821	6.444142241767	0
703	922	3.852051600452	0.00176
703	1214	4.056620311532	0.00176
703	1341	4.104925156041	0.002144
703	1503	4.117038930753	0.00176
703	1727	4.37423322428	0.00176
703	1828	4.483004302378	0.00176
703	2597	5.368753523361	0.00176
703	2657	5.537115399029	0.00176
703	2828	6.445018241767	0.00176
704	922	3.852051600452	0.00022
704	1214	4.056620311532	0.0004125
704	1341	4.104925156041	0.0006289375
704	1503	4.117038930753	0.000770320313
704	1727	4.37423322428	0.000894030274
704	1828	4.483004302378	0.00100227649
704	2597	5.368753523361	0.001096991929
704	2657	5.537115399029	0.001179867938
704	2828	6.445018241767	0.001252384446
705	922	3.852051600452	0.65647
705	1214	4.056620311532	0.57460375
705	1341	4.104925156041	0.50299471875
705	1503	4.117038930753	0.440261761719
705	1727	4.37423322428	0.385352751465
705	1828	4.483004302378	0.337291903748
705	2597	5.368753523361	0.295225131218
705	2657	5.537115399029	0.258404865825
705	2828	6.445018241767	0.226176774105
706	922	3.852051600452	2.6261
706	1214	4.056620311532	2.2988275
706	1341	4.104925156041	2.0126078125
706	1503	4.117038930753	1.761817367189
706	1727	4.37423322428	1.542305036134
706	1828	4.483004302378	1.350169891482
706	2597	5.368753523361	1.181997516801
706	2657	5.537115399029	1.034799331238
706	2828	6.445018241767	1
707	922	3.852051600452	1072
707	1214	4.056620311532	1608
707	1341	4.104925156041	2144
707	1503	4.117038930753	2680
707	1727	4.37423322428	3216
707	1828	4.483004302378	3752
707	2597	5.368753523361	4288
707	2657	5.537115399029	4824
707	2828	6.445018241767	5360
708	922	3.852051600452	4294967295
708	1214	4.056620311532	4294967295
708	1341	4.104925156041	4294967295
708	1503	4.117038930753	4294967295
708	1727	4.37423322428	4294967295
708	1828	4.483004302378	4294967295
708	2597	5.368753523361	4294967295
708	2657	5.537115399029	4294967295
708	2828	6.445018241767	4294967295
709	922	3.852051600452	0
709	1214	4.056620311532	0
709	1341	4.104925156041	0
709	1503	4.117038930753	0
709	1727	4.37423322428	0
709	1828	4.483004302378	0
709	2597	5.368753523361	0
709	2657	5.537115399029	0
709	2828	6.445018241767	0

