file 258579 1641570232                                          
version 2
run BROADCAST4-0-20220107-16:43:39-1404
attr configname BROADCAST4
attr datetime 20220107-16:43:39
attr experiment BROADCAST4
attr inifile omnetpp.ini
attr iterationvars ""
attr iterationvarsf ""
attr measurement ""
attr network scenario
attr processid 1404
attr repetition 0
attr replication #0
attr resultdir results
attr runnumber 0
attr seedset 0
param **.client0.app[0].broadcast 1.0
param **.client1.app[0].broadcast 1.4
param **.client2.app[0].broadcast 1.8
param **.client3.app[0].join 1.3
param **.client4.app[0].join 1.6
param **.ppp[*].ppp.queue.typename "\"DropTailQueue\""
param **.tcp.typename "\"Tcp\""
param **.tcp.nagleEnabled false
param **.cli*.app[*].nPar 5
param **.cli*.app[*].fPar 0
param **.numApps 1
param **.client0.app[*].typename "\"Node\""
param **.client0.app[0].localPort 1000
param **.client0.app[0].localPortL 1234
param **.client0.app[0].connectAddress "\"\""
param **.client0.app[0].connectPort 1234
param **.client1.app[*].typename "\"Node\""
param **.client1.app[0].localPort 1001
param **.client1.app[0].localPortL 1234
param **.client1.app[0].connectAddress "\"\""
param **.client1.app[0].connectPort 1234
param **.client2.app[*].typename "\"Node\""
param **.client2.app[0].localPort 1002
param **.client2.app[0].localPortL 1234
param **.client2.app[0].connectAddress "\"\""
param **.client2.app[0].connectPort 1234
param **.client3.app[*].typename "\"Node\""
param **.client3.app[0].localPort 1003
param **.client3.app[0].localPortL 1234
param **.client3.app[0].connectAddress "\"\""
param **.client3.app[0].connectPort 1234
param **.client4.app[*].typename "\"Node\""
param **.client4.app[0].localPort 1004
param **.client4.app[0].localPortL 1234
param **.client4.app[0].connectAddress "\"\""
param **.client4.app[0].connectPort 1234
param *.configurator.dumpAddresses true
param *.configurator.dumpTopology true
param *.configurator.dumpLinks true
param *.configurator.dumpRoutes true

vector 0 scenario.client0.ppp[0].ppp transmissionState:vector ETV
attr interpolationmode sample-hold
attr source transmissionStateChanged
attr title "tx state, vector"
vector 1 scenario.client0.ppp[1].ppp transmissionState:vector ETV
attr interpolationmode sample-hold
attr source transmissionStateChanged
attr title "tx state, vector"
vector 2 scenario.client0.ppp[2].ppp transmissionState:vector ETV
attr interpolationmode sample-hold
attr source transmissionStateChanged
attr title "tx state, vector"
vector 3 scenario.client0.ppp[3].ppp transmissionState:vector ETV
attr interpolationmode sample-hold
attr source transmissionStateChanged
attr title "tx state, vector"
vector 4 scenario.client1.ppp[0].ppp transmissionState:vector ETV
attr interpolationmode sample-hold
attr source transmissionStateChanged
attr title "tx state, vector"
vector 5 scenario.client1.ppp[1].ppp transmissionState:vector ETV
attr interpolationmode sample-hold
attr source transmissionStateChanged
attr title "tx state, vector"
vector 6 scenario.client1.ppp[2].ppp transmissionState:vector ETV
attr interpolationmode sample-hold
attr source transmissionStateChanged
attr title "tx state, vector"
vector 7 scenario.client1.ppp[3].ppp transmissionState:vector ETV
attr interpolationmode sample-hold
attr source transmissionStateChanged
attr title "tx state, vector"
vector 8 scenario.client2.ppp[0].ppp transmissionState:vector ETV
attr interpolationmode sample-hold
attr source transmissionStateChanged
attr title "tx state, vector"
vector 9 scenario.client2.ppp[1].ppp transmissionState:vector ETV
attr interpolationmode sample-hold
attr source transmissionStateChanged
attr title "tx state, vector"
vector 10 scenario.client2.ppp[2].ppp transmissionState:vector ETV
attr interpolationmode sample-hold
attr source transmissionStateChanged
attr title "tx state, vector"
vector 11 scenario.client2.ppp[3].ppp transmissionState:vector ETV
attr interpolationmode sample-hold
attr source transmissionStateChanged
attr title "tx state, vector"
vector 12 scenario.client3.ppp[0].ppp transmissionState:vector ETV
attr interpolationmode sample-hold
attr source transmissionStateChanged
attr title "tx state, vector"
vector 13 scenario.client3.ppp[1].ppp transmissionState:vector ETV
attr interpolationmode sample-hold
attr source transmissionStateChanged
attr title "tx state, vector"
vector 14 scenario.client3.ppp[2].ppp transmissionState:vector ETV
attr interpolationmode sample-hold
attr source transmissionStateChanged
attr title "tx state, vector"
vector 15 scenario.client3.ppp[3].ppp transmissionState:vector ETV
attr interpolationmode sample-hold
attr source transmissionStateChanged
attr title "tx state, vector"
vector 16 scenario.client4.ppp[0].ppp transmissionState:vector ETV
attr interpolationmode sample-hold
attr source transmissionStateChanged
attr title "tx state, vector"
vector 17 scenario.client4.ppp[1].ppp transmissionState:vector ETV
attr interpolationmode sample-hold
attr source transmissionStateChanged
attr title "tx state, vector"
vector 18 scenario.client4.ppp[2].ppp transmissionState:vector ETV
attr interpolationmode sample-hold
attr source transmissionStateChanged
attr title "tx state, vector"
vector 19 scenario.client4.ppp[3].ppp transmissionState:vector ETV
attr interpolationmode sample-hold
attr source transmissionStateChanged
attr title "tx state, vector"
vector 20 scenario.client0.tcp.conn-25 tcpRcvQueueBytes:vector ETV
attr interpolationmode sample-hold
vector 21 scenario.client0.tcp.conn-25 rcvAdv:vector ETV
attr interpolationmode sample-hold
vector 22 scenario.client0.tcp.conn-25 rcvWnd:vector ETV
attr interpolationmode sample-hold
vector 23 scenario.client0.tcp.conn-25 sndAck:vector ETV
attr interpolationmode sample-hold
vector 24 scenario.client0.ppp[0].ppp rcvdPkFromHl:vector(packetBytes) ETV
attr interpolationmode none
attr source packetReceivedFromUpper
attr title "packets received from higher layer, vector(packetBytes)"
vector 25 scenario.client0.ppp[0].ppp.queue packetPushed:vector(packetBytes) ETV
attr interpolationmode none
attr title "packet pushed, vector(packetBytes)"
vector 26 scenario.client0.ppp[0].ppp.queue queueLength:vector ETV
attr interpolationmode sample-hold
attr source "count(packetPushed) - count(packetPopped) - count(packetRemoved) - count(packetDropped)"
attr title "queue length, vector"
vector 27 scenario.client0.ppp[0].ppp.queue packetPopped:vector(packetBytes) ETV
attr interpolationmode none
attr title "packet popped, vector(packetBytes)"
vector 28 scenario.client0.ppp[0].ppp.queue queueingTime:vector ETV
attr interpolationmode none
attr source queueingTime(packetPopped)
attr title "queueing times, vector"
attr unit s
vector 29 scenario.client0.ppp[0].ppp txPk:vector(packetBytes) ETV
attr interpolationmode none
attr source packetSentToLower
attr title "packets transmitted, vector(packetBytes)"
vector 30 scenario.client1.ppp[0].ppp rxPkOk:vector(packetBytes) ETV
attr interpolationmode none
attr source rxPkOk
attr title "packets received OK, vector(packetBytes)"
vector 31 scenario.client1.ppp[0].ppp passedUpPk:vector(packetBytes) ETV
attr interpolationmode none
attr source packetSentToUpper
attr title "packets passed to higher layer, vector(packetBytes)"
vector 32 scenario.client1.tcp.conn-1 rcvSeq:vector ETV
attr interpolationmode sample-hold
vector 33 scenario.client1.tcp.conn-1 rcvAck:vector ETV
attr interpolationmode sample-hold
vector 34 scenario.client1.tcp.conn-26 rcvAdv:vector ETV
attr interpolationmode sample-hold
vector 35 scenario.client1.tcp.conn-26 sndWnd:vector ETV
attr interpolationmode sample-hold
vector 36 scenario.client1.tcp.conn-26 tcpRcvQueueBytes:vector ETV
attr interpolationmode sample-hold
vector 37 scenario.client1.tcp.conn-26 rcvWnd:vector ETV
attr interpolationmode sample-hold
vector 38 scenario.client1.tcp.conn-26 sndAck:vector ETV
attr interpolationmode sample-hold
vector 39 scenario.client1.ppp[0].ppp rcvdPkFromHl:vector(packetBytes) ETV
attr interpolationmode none
attr source packetReceivedFromUpper
attr title "packets received from higher layer, vector(packetBytes)"
vector 40 scenario.client1.ppp[0].ppp.queue packetPushed:vector(packetBytes) ETV
attr interpolationmode none
attr title "packet pushed, vector(packetBytes)"
vector 41 scenario.client1.ppp[0].ppp.queue queueLength:vector ETV
attr interpolationmode sample-hold
attr source "count(packetPushed) - count(packetPopped) - count(packetRemoved) - count(packetDropped)"
attr title "queue length, vector"
vector 42 scenario.client1.ppp[0].ppp.queue packetPopped:vector(packetBytes) ETV
attr interpolationmode none
attr title "packet popped, vector(packetBytes)"
vector 43 scenario.client1.ppp[0].ppp.queue queueingTime:vector ETV
attr interpolationmode none
attr source queueingTime(packetPopped)
attr title "queueing times, vector"
attr unit s
vector 44 scenario.client1.ppp[0].ppp txPk:vector(packetBytes) ETV
attr interpolationmode none
attr source packetSentToLower
attr title "packets transmitted, vector(packetBytes)"
vector 45 scenario.client0.ppp[0].ppp rxPkOk:vector(packetBytes) ETV
attr interpolationmode none
attr source rxPkOk
attr title "packets received OK, vector(packetBytes)"
vector 46 scenario.client0.ppp[0].ppp passedUpPk:vector(packetBytes) ETV
attr interpolationmode none
attr source packetSentToUpper
attr title "packets passed to higher layer, vector(packetBytes)"
vector 47 scenario.client0.tcp.conn-25 rcvSeq:vector ETV
attr interpolationmode sample-hold
vector 48 scenario.client0.tcp.conn-25 rcvAck:vector ETV
attr interpolationmode sample-hold
vector 49 scenario.client0.tcp.conn-25 sndWnd:vector ETV
attr interpolationmode sample-hold
vector 50 scenario.client0.tcp.conn-25 unacked:vector ETV
attr interpolationmode sample-hold
vector 51 scenario.client1.tcp.conn-26 rcvSeq:vector ETV
attr interpolationmode sample-hold
vector 52 scenario.client1.tcp.conn-26 rcvAck:vector ETV
attr interpolationmode sample-hold
vector 53 scenario.client1.tcp.conn-26 unacked:vector ETV
attr interpolationmode sample-hold
vector 54 scenario.client1.tcp.conn-26 cwnd:vector ETV
attr interpolationmode sample-hold
vector 55 scenario.client1.tcp.conn-26 ssthresh:vector ETV
attr interpolationmode sample-hold
vector 56 scenario.client1.tcp.conn-26 dupAcks:vector ETV
attr interpolationmode sample-hold
vector 57 scenario.client0.tcp.conn-25 rtt:vector ETV
attr interpolationmode sample-hold
vector 58 scenario.client0.tcp.conn-25 srtt:vector ETV
attr interpolationmode sample-hold
vector 59 scenario.client0.tcp.conn-25 rttvar:vector ETV
attr interpolationmode sample-hold
vector 60 scenario.client0.tcp.conn-25 rto:vector ETV
attr interpolationmode sample-hold
vector 61 scenario.client0.tcp.conn-25 cwnd:vector ETV
attr interpolationmode sample-hold
vector 62 scenario.client0.tcp.conn-25 ssthresh:vector ETV
attr interpolationmode sample-hold
vector 63 scenario.client0.tcp.conn-25 dupAcks:vector ETV
attr interpolationmode sample-hold
vector 64 scenario.client1.tcp.conn-27 tcpRcvQueueBytes:vector ETV
attr interpolationmode sample-hold
vector 65 scenario.client1.tcp.conn-27 rcvAdv:vector ETV
attr interpolationmode sample-hold
vector 66 scenario.client1.tcp.conn-27 rcvWnd:vector ETV
attr interpolationmode sample-hold
vector 67 scenario.client1.tcp.conn-27 sndAck:vector ETV
attr interpolationmode sample-hold
vector 68 scenario.client0.tcp.conn-0 rcvSeq:vector ETV
attr interpolationmode sample-hold
vector 69 scenario.client0.tcp.conn-0 rcvAck:vector ETV
attr interpolationmode sample-hold
vector 70 scenario.client0.tcp.conn-28 rcvAdv:vector ETV
attr interpolationmode sample-hold
vector 71 scenario.client0.tcp.conn-28 sndWnd:vector ETV
attr interpolationmode sample-hold
vector 72 scenario.client0.tcp.conn-28 tcpRcvQueueBytes:vector ETV
attr interpolationmode sample-hold
vector 73 scenario.client0.tcp.conn-28 rcvWnd:vector ETV
attr interpolationmode sample-hold
vector 74 scenario.client0.tcp.conn-28 sndAck:vector ETV
attr interpolationmode sample-hold
vector 75 scenario.client1.tcp.conn-27 rcvSeq:vector ETV
attr interpolationmode sample-hold
vector 76 scenario.client1.tcp.conn-27 rcvAck:vector ETV
attr interpolationmode sample-hold
vector 77 scenario.client1.tcp.conn-27 sndWnd:vector ETV
attr interpolationmode sample-hold
vector 78 scenario.client1.tcp.conn-27 unacked:vector ETV
attr interpolationmode sample-hold
vector 79 scenario.client0.tcp.conn-28 rcvSeq:vector ETV
attr interpolationmode sample-hold
vector 80 scenario.client0.tcp.conn-28 rcvAck:vector ETV
attr interpolationmode sample-hold
vector 81 scenario.client0.tcp.conn-28 unacked:vector ETV
attr interpolationmode sample-hold
vector 82 scenario.client0.tcp.conn-28 cwnd:vector ETV
attr interpolationmode sample-hold
vector 83 scenario.client0.tcp.conn-28 ssthresh:vector ETV
attr interpolationmode sample-hold
vector 84 scenario.client0.tcp.conn-28 dupAcks:vector ETV
attr interpolationmode sample-hold
vector 85 scenario.client1.tcp.conn-27 rtt:vector ETV
attr interpolationmode sample-hold
vector 86 scenario.client1.tcp.conn-27 srtt:vector ETV
attr interpolationmode sample-hold
vector 87 scenario.client1.tcp.conn-27 rttvar:vector ETV
attr interpolationmode sample-hold
vector 88 scenario.client1.tcp.conn-27 rto:vector ETV
attr interpolationmode sample-hold
vector 89 scenario.client1.tcp.conn-27 cwnd:vector ETV
attr interpolationmode sample-hold
vector 90 scenario.client1.tcp.conn-27 ssthresh:vector ETV
attr interpolationmode sample-hold
vector 91 scenario.client1.tcp.conn-27 dupAcks:vector ETV
attr interpolationmode sample-hold
vector 92 scenario.client0.tcp.conn-29 tcpRcvQueueBytes:vector ETV
attr interpolationmode sample-hold
vector 93 scenario.client0.tcp.conn-29 rcvAdv:vector ETV
attr interpolationmode sample-hold
vector 94 scenario.client0.tcp.conn-29 rcvWnd:vector ETV
attr interpolationmode sample-hold
vector 95 scenario.client0.tcp.conn-29 sndAck:vector ETV
attr interpolationmode sample-hold
vector 96 scenario.client0.ppp[1].ppp rcvdPkFromHl:vector(packetBytes) ETV
attr interpolationmode none
attr source packetReceivedFromUpper
attr title "packets received from higher layer, vector(packetBytes)"
vector 97 scenario.client0.ppp[1].ppp.queue packetPushed:vector(packetBytes) ETV
attr interpolationmode none
attr title "packet pushed, vector(packetBytes)"
vector 98 scenario.client0.ppp[1].ppp.queue queueLength:vector ETV
attr interpolationmode sample-hold
attr source "count(packetPushed) - count(packetPopped) - count(packetRemoved) - count(packetDropped)"
attr title "queue length, vector"
vector 99 scenario.client0.ppp[1].ppp.queue packetPopped:vector(packetBytes) ETV
attr interpolationmode none
attr title "packet popped, vector(packetBytes)"
vector 100 scenario.client0.ppp[1].ppp.queue queueingTime:vector ETV
attr interpolationmode none
attr source queueingTime(packetPopped)
attr title "queueing times, vector"
attr unit s
vector 101 scenario.client0.ppp[1].ppp txPk:vector(packetBytes) ETV
attr interpolationmode none
attr source packetSentToLower
attr title "packets transmitted, vector(packetBytes)"
vector 102 scenario.client2.ppp[0].ppp rxPkOk:vector(packetBytes) ETV
attr interpolationmode none
attr source rxPkOk
attr title "packets received OK, vector(packetBytes)"
vector 103 scenario.client2.ppp[0].ppp passedUpPk:vector(packetBytes) ETV
attr interpolationmode none
attr source packetSentToUpper
attr title "packets passed to higher layer, vector(packetBytes)"
vector 104 scenario.client2.tcp.conn-2 rcvSeq:vector ETV
attr interpolationmode sample-hold
vector 105 scenario.client2.tcp.conn-2 rcvAck:vector ETV
attr interpolationmode sample-hold
vector 106 scenario.client2.tcp.conn-30 rcvAdv:vector ETV
attr interpolationmode sample-hold
vector 107 scenario.client2.tcp.conn-30 sndWnd:vector ETV
attr interpolationmode sample-hold
vector 108 scenario.client2.tcp.conn-30 tcpRcvQueueBytes:vector ETV
attr interpolationmode sample-hold
vector 109 scenario.client2.tcp.conn-30 rcvWnd:vector ETV
attr interpolationmode sample-hold
vector 110 scenario.client2.tcp.conn-30 sndAck:vector ETV
attr interpolationmode sample-hold
vector 111 scenario.client2.ppp[0].ppp rcvdPkFromHl:vector(packetBytes) ETV
attr interpolationmode none
attr source packetReceivedFromUpper
attr title "packets received from higher layer, vector(packetBytes)"
vector 112 scenario.client2.ppp[0].ppp.queue packetPushed:vector(packetBytes) ETV
attr interpolationmode none
attr title "packet pushed, vector(packetBytes)"
vector 113 scenario.client2.ppp[0].ppp.queue queueLength:vector ETV
attr interpolationmode sample-hold
attr source "count(packetPushed) - count(packetPopped) - count(packetRemoved) - count(packetDropped)"
attr title "queue length, vector"
vector 114 scenario.client2.ppp[0].ppp.queue packetPopped:vector(packetBytes) ETV
attr interpolationmode none
attr title "packet popped, vector(packetBytes)"
vector 115 scenario.client2.ppp[0].ppp.queue queueingTime:vector ETV
attr interpolationmode none
attr source queueingTime(packetPopped)
attr title "queueing times, vector"
attr unit s
vector 116 scenario.client2.ppp[0].ppp txPk:vector(packetBytes) ETV
attr interpolationmode none
attr source packetSentToLower
attr title "packets transmitted, vector(packetBytes)"
vector 117 scenario.client0.ppp[1].ppp rxPkOk:vector(packetBytes) ETV
attr interpolationmode none
attr source rxPkOk
attr title "packets received OK, vector(packetBytes)"
vector 118 scenario.client0.ppp[1].ppp passedUpPk:vector(packetBytes) ETV
attr interpolationmode none
attr source packetSentToUpper
attr title "packets passed to higher layer, vector(packetBytes)"
vector 119 scenario.client0.tcp.conn-29 rcvSeq:vector ETV
attr interpolationmode sample-hold
vector 120 scenario.client0.tcp.conn-29 rcvAck:vector ETV
attr interpolationmode sample-hold
vector 121 scenario.client0.tcp.conn-29 sndWnd:vector ETV
attr interpolationmode sample-hold
vector 122 scenario.client0.tcp.conn-29 unacked:vector ETV
attr interpolationmode sample-hold
vector 123 scenario.client2.tcp.conn-30 rcvSeq:vector ETV
attr interpolationmode sample-hold
vector 124 scenario.client2.tcp.conn-30 rcvAck:vector ETV
attr interpolationmode sample-hold
vector 125 scenario.client2.tcp.conn-30 unacked:vector ETV
attr interpolationmode sample-hold
vector 126 scenario.client2.tcp.conn-30 cwnd:vector ETV
attr interpolationmode sample-hold
vector 127 scenario.client2.tcp.conn-30 ssthresh:vector ETV
attr interpolationmode sample-hold
vector 128 scenario.client2.tcp.conn-30 dupAcks:vector ETV
attr interpolationmode sample-hold
vector 129 scenario.client0.tcp.conn-29 rtt:vector ETV
attr interpolationmode sample-hold
vector 130 scenario.client0.tcp.conn-29 srtt:vector ETV
attr interpolationmode sample-hold
vector 131 scenario.client0.tcp.conn-29 rttvar:vector ETV
attr interpolationmode sample-hold
vector 132 scenario.client0.tcp.conn-29 rto:vector ETV
attr interpolationmode sample-hold
vector 133 scenario.client0.tcp.conn-29 cwnd:vector ETV
attr interpolationmode sample-hold
vector 134 scenario.client0.tcp.conn-29 ssthresh:vector ETV
attr interpolationmode sample-hold
vector 135 scenario.client0.tcp.conn-29 dupAcks:vector ETV
attr interpolationmode sample-hold
vector 136 scenario.client2.tcp.conn-31 tcpRcvQueueBytes:vector ETV
attr interpolationmode sample-hold
vector 137 scenario.client2.tcp.conn-31 rcvAdv:vector ETV
attr interpolationmode sample-hold
vector 138 scenario.client2.tcp.conn-31 rcvWnd:vector ETV
attr interpolationmode sample-hold
vector 139 scenario.client2.tcp.conn-31 sndAck:vector ETV
attr interpolationmode sample-hold
vector 140 scenario.client0.tcp.conn-32 rcvAdv:vector ETV
attr interpolationmode sample-hold
vector 141 scenario.client0.tcp.conn-32 sndWnd:vector ETV
attr interpolationmode sample-hold
vector 142 scenario.client0.tcp.conn-32 tcpRcvQueueBytes:vector ETV
attr interpolationmode sample-hold
vector 143 scenario.client0.tcp.conn-32 rcvWnd:vector ETV
attr interpolationmode sample-hold
vector 144 scenario.client0.tcp.conn-32 sndAck:vector ETV
attr interpolationmode sample-hold
vector 145 scenario.client2.tcp.conn-31 rcvSeq:vector ETV
attr interpolationmode sample-hold
vector 146 scenario.client2.tcp.conn-31 rcvAck:vector ETV
attr interpolationmode sample-hold
vector 147 scenario.client2.tcp.conn-31 sndWnd:vector ETV
attr interpolationmode sample-hold
vector 148 scenario.client2.tcp.conn-31 unacked:vector ETV
attr interpolationmode sample-hold
vector 149 scenario.client0.tcp.conn-32 rcvSeq:vector ETV
attr interpolationmode sample-hold
vector 150 scenario.client0.tcp.conn-32 rcvAck:vector ETV
attr interpolationmode sample-hold
vector 151 scenario.client0.tcp.conn-32 unacked:vector ETV
attr interpolationmode sample-hold
vector 152 scenario.client0.tcp.conn-32 cwnd:vector ETV
attr interpolationmode sample-hold
vector 153 scenario.client0.tcp.conn-32 ssthresh:vector ETV
attr interpolationmode sample-hold
vector 154 scenario.client0.tcp.conn-32 dupAcks:vector ETV
attr interpolationmode sample-hold
vector 155 scenario.client2.tcp.conn-31 rtt:vector ETV
attr interpolationmode sample-hold
vector 156 scenario.client2.tcp.conn-31 srtt:vector ETV
attr interpolationmode sample-hold
vector 157 scenario.client2.tcp.conn-31 rttvar:vector ETV
attr interpolationmode sample-hold
vector 158 scenario.client2.tcp.conn-31 rto:vector ETV
attr interpolationmode sample-hold
vector 159 scenario.client2.tcp.conn-31 cwnd:vector ETV
attr interpolationmode sample-hold
vector 160 scenario.client2.tcp.conn-31 ssthresh:vector ETV
attr interpolationmode sample-hold
vector 161 scenario.client2.tcp.conn-31 dupAcks:vector ETV
attr interpolationmode sample-hold
vector 162 scenario.client1.tcp.conn-33 tcpRcvQueueBytes:vector ETV
attr interpolationmode sample-hold
vector 163 scenario.client1.tcp.conn-33 rcvAdv:vector ETV
attr interpolationmode sample-hold
vector 164 scenario.client1.tcp.conn-33 rcvWnd:vector ETV
attr interpolationmode sample-hold
vector 165 scenario.client1.tcp.conn-33 sndAck:vector ETV
attr interpolationmode sample-hold
vector 166 scenario.client1.ppp[1].ppp rcvdPkFromHl:vector(packetBytes) ETV
attr interpolationmode none
attr source packetReceivedFromUpper
attr title "packets received from higher layer, vector(packetBytes)"
vector 167 scenario.client1.ppp[1].ppp.queue packetPushed:vector(packetBytes) ETV
attr interpolationmode none
attr title "packet pushed, vector(packetBytes)"
vector 168 scenario.client1.ppp[1].ppp.queue queueLength:vector ETV
attr interpolationmode sample-hold
attr source "count(packetPushed) - count(packetPopped) - count(packetRemoved) - count(packetDropped)"
attr title "queue length, vector"
vector 169 scenario.client1.ppp[1].ppp.queue packetPopped:vector(packetBytes) ETV
attr interpolationmode none
attr title "packet popped, vector(packetBytes)"
vector 170 scenario.client1.ppp[1].ppp.queue queueingTime:vector ETV
attr interpolationmode none
attr source queueingTime(packetPopped)
attr title "queueing times, vector"
attr unit s
vector 171 scenario.client1.ppp[1].ppp txPk:vector(packetBytes) ETV
attr interpolationmode none
attr source packetSentToLower
attr title "packets transmitted, vector(packetBytes)"
vector 172 scenario.client2.ppp[1].ppp rxPkOk:vector(packetBytes) ETV
attr interpolationmode none
attr source rxPkOk
attr title "packets received OK, vector(packetBytes)"
vector 173 scenario.client2.ppp[1].ppp passedUpPk:vector(packetBytes) ETV
attr interpolationmode none
attr source packetSentToUpper
attr title "packets passed to higher layer, vector(packetBytes)"
vector 174 scenario.client2.tcp.conn-34 rcvAdv:vector ETV
attr interpolationmode sample-hold
vector 175 scenario.client2.tcp.conn-34 sndWnd:vector ETV
attr interpolationmode sample-hold
vector 176 scenario.client2.tcp.conn-34 tcpRcvQueueBytes:vector ETV
attr interpolationmode sample-hold
vector 177 scenario.client2.tcp.conn-34 rcvWnd:vector ETV
attr interpolationmode sample-hold
vector 178 scenario.client2.tcp.conn-34 sndAck:vector ETV
attr interpolationmode sample-hold
vector 179 scenario.client2.ppp[1].ppp rcvdPkFromHl:vector(packetBytes) ETV
attr interpolationmode none
attr source packetReceivedFromUpper
attr title "packets received from higher layer, vector(packetBytes)"
vector 180 scenario.client2.ppp[1].ppp.queue packetPushed:vector(packetBytes) ETV
attr interpolationmode none
attr title "packet pushed, vector(packetBytes)"
vector 181 scenario.client2.ppp[1].ppp.queue queueLength:vector ETV
attr interpolationmode sample-hold
attr source "count(packetPushed) - count(packetPopped) - count(packetRemoved) - count(packetDropped)"
attr title "queue length, vector"
vector 182 scenario.client2.ppp[1].ppp.queue packetPopped:vector(packetBytes) ETV
attr interpolationmode none
attr title "packet popped, vector(packetBytes)"
vector 183 scenario.client2.ppp[1].ppp.queue queueingTime:vector ETV
attr interpolationmode none
attr source queueingTime(packetPopped)
attr title "queueing times, vector"
attr unit s
vector 184 scenario.client2.ppp[1].ppp txPk:vector(packetBytes) ETV
attr interpolationmode none
attr source packetSentToLower
attr title "packets transmitted, vector(packetBytes)"
vector 185 scenario.client1.ppp[1].ppp rxPkOk:vector(packetBytes) ETV
attr interpolationmode none
attr source rxPkOk
attr title "packets received OK, vector(packetBytes)"
vector 186 scenario.client1.ppp[1].ppp passedUpPk:vector(packetBytes) ETV
attr interpolationmode none
attr source packetSentToUpper
attr title "packets passed to higher layer, vector(packetBytes)"
vector 187 scenario.client1.tcp.conn-33 rcvSeq:vector ETV
attr interpolationmode sample-hold
vector 188 scenario.client1.tcp.conn-33 rcvAck:vector ETV
attr interpolationmode sample-hold
vector 189 scenario.client1.tcp.conn-33 sndWnd:vector ETV
attr interpolationmode sample-hold
vector 190 scenario.client1.tcp.conn-33 unacked:vector ETV
attr interpolationmode sample-hold
vector 191 scenario.client2.tcp.conn-34 rcvSeq:vector ETV
attr interpolationmode sample-hold
vector 192 scenario.client2.tcp.conn-34 rcvAck:vector ETV
attr interpolationmode sample-hold
vector 193 scenario.client2.tcp.conn-34 unacked:vector ETV
attr interpolationmode sample-hold
vector 194 scenario.client2.tcp.conn-34 cwnd:vector ETV
attr interpolationmode sample-hold
vector 195 scenario.client2.tcp.conn-34 ssthresh:vector ETV
attr interpolationmode sample-hold
vector 196 scenario.client2.tcp.conn-34 dupAcks:vector ETV
attr interpolationmode sample-hold
vector 197 scenario.client1.tcp.conn-33 rtt:vector ETV
attr interpolationmode sample-hold
vector 198 scenario.client1.tcp.conn-33 srtt:vector ETV
attr interpolationmode sample-hold
vector 199 scenario.client1.tcp.conn-33 rttvar:vector ETV
attr interpolationmode sample-hold
vector 200 scenario.client1.tcp.conn-33 rto:vector ETV
attr interpolationmode sample-hold
vector 201 scenario.client1.tcp.conn-33 cwnd:vector ETV
attr interpolationmode sample-hold
vector 202 scenario.client1.tcp.conn-33 ssthresh:vector ETV
attr interpolationmode sample-hold
vector 203 scenario.client1.tcp.conn-33 dupAcks:vector ETV
attr interpolationmode sample-hold
vector 204 scenario.client4.tcp.conn-35 tcpRcvQueueBytes:vector ETV
attr interpolationmode sample-hold
vector 205 scenario.client4.tcp.conn-35 rcvAdv:vector ETV
attr interpolationmode sample-hold
vector 206 scenario.client4.tcp.conn-35 rcvWnd:vector ETV
attr interpolationmode sample-hold
vector 207 scenario.client4.tcp.conn-35 sndAck:vector ETV
attr interpolationmode sample-hold
vector 208 scenario.client4.ppp[1].ppp rcvdPkFromHl:vector(packetBytes) ETV
attr interpolationmode none
attr source packetReceivedFromUpper
attr title "packets received from higher layer, vector(packetBytes)"
vector 209 scenario.client4.ppp[1].ppp.queue packetPushed:vector(packetBytes) ETV
attr interpolationmode none
attr title "packet pushed, vector(packetBytes)"
vector 210 scenario.client4.ppp[1].ppp.queue queueLength:vector ETV
attr interpolationmode sample-hold
attr source "count(packetPushed) - count(packetPopped) - count(packetRemoved) - count(packetDropped)"
attr title "queue length, vector"
vector 211 scenario.client4.ppp[1].ppp.queue packetPopped:vector(packetBytes) ETV
attr interpolationmode none
attr title "packet popped, vector(packetBytes)"
vector 212 scenario.client4.ppp[1].ppp.queue queueingTime:vector ETV
attr interpolationmode none
attr source queueingTime(packetPopped)
attr title "queueing times, vector"
attr unit s
vector 213 scenario.client4.ppp[1].ppp txPk:vector(packetBytes) ETV
attr interpolationmode none
attr source packetSentToLower
attr title "packets transmitted, vector(packetBytes)"
vector 214 scenario.client1.ppp[3].ppp rxPkOk:vector(packetBytes) ETV
attr interpolationmode none
attr source rxPkOk
attr title "packets received OK, vector(packetBytes)"
vector 215 scenario.client1.ppp[3].ppp passedUpPk:vector(packetBytes) ETV
attr interpolationmode none
attr source packetSentToUpper
attr title "packets passed to higher layer, vector(packetBytes)"
vector 216 scenario.client1.tcp.conn-36 rcvAdv:vector ETV
attr interpolationmode sample-hold
vector 217 scenario.client1.tcp.conn-36 sndWnd:vector ETV
attr interpolationmode sample-hold
vector 218 scenario.client1.tcp.conn-36 tcpRcvQueueBytes:vector ETV
attr interpolationmode sample-hold
vector 219 scenario.client1.tcp.conn-36 rcvWnd:vector ETV
attr interpolationmode sample-hold
vector 220 scenario.client1.tcp.conn-36 sndAck:vector ETV
attr interpolationmode sample-hold
vector 221 scenario.client1.ppp[3].ppp rcvdPkFromHl:vector(packetBytes) ETV
attr interpolationmode none
attr source packetReceivedFromUpper
attr title "packets received from higher layer, vector(packetBytes)"
vector 222 scenario.client1.ppp[3].ppp.queue packetPushed:vector(packetBytes) ETV
attr interpolationmode none
attr title "packet pushed, vector(packetBytes)"
vector 223 scenario.client1.ppp[3].ppp.queue queueLength:vector ETV
attr interpolationmode sample-hold
attr source "count(packetPushed) - count(packetPopped) - count(packetRemoved) - count(packetDropped)"
attr title "queue length, vector"
vector 224 scenario.client1.ppp[3].ppp.queue packetPopped:vector(packetBytes) ETV
attr interpolationmode none
attr title "packet popped, vector(packetBytes)"
vector 225 scenario.client1.ppp[3].ppp.queue queueingTime:vector ETV
attr interpolationmode none
attr source queueingTime(packetPopped)
attr title "queueing times, vector"
attr unit s
vector 226 scenario.client1.ppp[3].ppp txPk:vector(packetBytes) ETV
attr interpolationmode none
attr source packetSentToLower
attr title "packets transmitted, vector(packetBytes)"
vector 227 scenario.client4.ppp[1].ppp rxPkOk:vector(packetBytes) ETV
attr interpolationmode none
attr source rxPkOk
attr title "packets received OK, vector(packetBytes)"
vector 228 scenario.client4.ppp[1].ppp passedUpPk:vector(packetBytes) ETV
attr interpolationmode none
attr source packetSentToUpper
attr title "packets passed to higher layer, vector(packetBytes)"
vector 229 scenario.client4.tcp.conn-35 rcvSeq:vector ETV
attr interpolationmode sample-hold
vector 230 scenario.client4.tcp.conn-35 rcvAck:vector ETV
attr interpolationmode sample-hold
vector 231 scenario.client4.tcp.conn-35 sndWnd:vector ETV
attr interpolationmode sample-hold
vector 232 scenario.client4.tcp.conn-35 unacked:vector ETV
attr interpolationmode sample-hold
vector 233 scenario.client1.tcp.conn-36 rcvSeq:vector ETV
attr interpolationmode sample-hold
vector 234 scenario.client1.tcp.conn-36 rcvAck:vector ETV
attr interpolationmode sample-hold
vector 235 scenario.client1.tcp.conn-36 unacked:vector ETV
attr interpolationmode sample-hold
vector 236 scenario.client1.tcp.conn-36 cwnd:vector ETV
attr interpolationmode sample-hold
vector 237 scenario.client1.tcp.conn-36 ssthresh:vector ETV
attr interpolationmode sample-hold
vector 238 scenario.client1.tcp.conn-36 dupAcks:vector ETV
attr interpolationmode sample-hold
vector 239 scenario.client4.tcp.conn-35 rtt:vector ETV
attr interpolationmode sample-hold
vector 240 scenario.client4.tcp.conn-35 srtt:vector ETV
attr interpolationmode sample-hold
vector 241 scenario.client4.tcp.conn-35 rttvar:vector ETV
attr interpolationmode sample-hold
vector 242 scenario.client4.tcp.conn-35 rto:vector ETV
attr interpolationmode sample-hold
vector 243 scenario.client4.tcp.conn-35 cwnd:vector ETV
attr interpolationmode sample-hold
vector 244 scenario.client4.tcp.conn-35 ssthresh:vector ETV
attr interpolationmode sample-hold
vector 245 scenario.client4.tcp.conn-35 dupAcks:vector ETV
attr interpolationmode sample-hold
vector 246 scenario.client3.tcp.conn-37 tcpRcvQueueBytes:vector ETV
attr interpolationmode sample-hold
vector 247 scenario.client3.tcp.conn-37 rcvAdv:vector ETV
attr interpolationmode sample-hold
vector 248 scenario.client3.tcp.conn-37 rcvWnd:vector ETV
attr interpolationmode sample-hold
vector 249 scenario.client3.tcp.conn-37 sndAck:vector ETV
attr interpolationmode sample-hold
vector 250 scenario.client3.ppp[2].ppp rcvdPkFromHl:vector(packetBytes) ETV
attr interpolationmode none
attr source packetReceivedFromUpper
attr title "packets received from higher layer, vector(packetBytes)"
vector 251 scenario.client3.ppp[2].ppp.queue packetPushed:vector(packetBytes) ETV
attr interpolationmode none
attr title "packet pushed, vector(packetBytes)"
vector 252 scenario.client3.ppp[2].ppp.queue queueLength:vector ETV
attr interpolationmode sample-hold
attr source "count(packetPushed) - count(packetPopped) - count(packetRemoved) - count(packetDropped)"
attr title "queue length, vector"
vector 253 scenario.client3.ppp[2].ppp.queue packetPopped:vector(packetBytes) ETV
attr interpolationmode none
attr title "packet popped, vector(packetBytes)"
vector 254 scenario.client3.ppp[2].ppp.queue queueingTime:vector ETV
attr interpolationmode none
attr source queueingTime(packetPopped)
attr title "queueing times, vector"
attr unit s
vector 255 scenario.client3.ppp[2].ppp txPk:vector(packetBytes) ETV
attr interpolationmode none
attr source packetSentToLower
attr title "packets transmitted, vector(packetBytes)"
vector 256 scenario.client2.ppp[2].ppp rxPkOk:vector(packetBytes) ETV
attr interpolationmode none
attr source rxPkOk
attr title "packets received OK, vector(packetBytes)"
vector 257 scenario.client2.ppp[2].ppp passedUpPk:vector(packetBytes) ETV
attr interpolationmode none
attr source packetSentToUpper
attr title "packets passed to higher layer, vector(packetBytes)"
vector 258 scenario.client2.tcp.conn-38 rcvAdv:vector ETV
attr interpolationmode sample-hold
vector 259 scenario.client2.tcp.conn-38 sndWnd:vector ETV
attr interpolationmode sample-hold
vector 260 scenario.client2.tcp.conn-38 tcpRcvQueueBytes:vector ETV
attr interpolationmode sample-hold
vector 261 scenario.client2.tcp.conn-38 rcvWnd:vector ETV
attr interpolationmode sample-hold
vector 262 scenario.client2.tcp.conn-38 sndAck:vector ETV
attr interpolationmode sample-hold
vector 263 scenario.client2.ppp[2].ppp rcvdPkFromHl:vector(packetBytes) ETV
attr interpolationmode none
attr source packetReceivedFromUpper
attr title "packets received from higher layer, vector(packetBytes)"
vector 264 scenario.client2.ppp[2].ppp.queue packetPushed:vector(packetBytes) ETV
attr interpolationmode none
attr title "packet pushed, vector(packetBytes)"
vector 265 scenario.client2.ppp[2].ppp.queue queueLength:vector ETV
attr interpolationmode sample-hold
attr source "count(packetPushed) - count(packetPopped) - count(packetRemoved) - count(packetDropped)"
attr title "queue length, vector"
vector 266 scenario.client2.ppp[2].ppp.queue packetPopped:vector(packetBytes) ETV
attr interpolationmode none
attr title "packet popped, vector(packetBytes)"
vector 267 scenario.client2.ppp[2].ppp.queue queueingTime:vector ETV
attr interpolationmode none
attr source queueingTime(packetPopped)
attr title "queueing times, vector"
attr unit s
vector 268 scenario.client2.ppp[2].ppp txPk:vector(packetBytes) ETV
attr interpolationmode none
attr source packetSentToLower
attr title "packets transmitted, vector(packetBytes)"
vector 269 scenario.client3.ppp[2].ppp rxPkOk:vector(packetBytes) ETV
attr interpolationmode none
attr source rxPkOk
attr title "packets received OK, vector(packetBytes)"
vector 270 scenario.client3.ppp[2].ppp passedUpPk:vector(packetBytes) ETV
attr interpolationmode none
attr source packetSentToUpper
attr title "packets passed to higher layer, vector(packetBytes)"
vector 271 scenario.client3.tcp.conn-37 rcvSeq:vector ETV
attr interpolationmode sample-hold
vector 272 scenario.client3.tcp.conn-37 rcvAck:vector ETV
attr interpolationmode sample-hold
vector 273 scenario.client3.tcp.conn-37 sndWnd:vector ETV
attr interpolationmode sample-hold
vector 274 scenario.client3.tcp.conn-37 unacked:vector ETV
attr interpolationmode sample-hold
vector 275 scenario.client2.tcp.conn-38 rcvSeq:vector ETV
attr interpolationmode sample-hold
vector 276 scenario.client2.tcp.conn-38 rcvAck:vector ETV
attr interpolationmode sample-hold
vector 277 scenario.client2.tcp.conn-38 unacked:vector ETV
attr interpolationmode sample-hold
vector 278 scenario.client2.tcp.conn-38 cwnd:vector ETV
attr interpolationmode sample-hold
vector 279 scenario.client2.tcp.conn-38 ssthresh:vector ETV
attr interpolationmode sample-hold
vector 280 scenario.client2.tcp.conn-38 dupAcks:vector ETV
attr interpolationmode sample-hold
vector 281 scenario.client3.tcp.conn-37 rtt:vector ETV
attr interpolationmode sample-hold
vector 282 scenario.client3.tcp.conn-37 srtt:vector ETV
attr interpolationmode sample-hold
vector 283 scenario.client3.tcp.conn-37 rttvar:vector ETV
attr interpolationmode sample-hold
vector 284 scenario.client3.tcp.conn-37 rto:vector ETV
attr interpolationmode sample-hold
vector 285 scenario.client3.tcp.conn-37 cwnd:vector ETV
attr interpolationmode sample-hold
vector 286 scenario.client3.tcp.conn-37 ssthresh:vector ETV
attr interpolationmode sample-hold
vector 287 scenario.client3.tcp.conn-37 dupAcks:vector ETV
attr interpolationmode sample-hold
vector 288 scenario.client2.tcp.conn-39 tcpRcvQueueBytes:vector ETV
attr interpolationmode sample-hold
vector 289 scenario.client2.tcp.conn-39 rcvAdv:vector ETV
attr interpolationmode sample-hold
vector 290 scenario.client2.tcp.conn-39 rcvWnd:vector ETV
attr interpolationmode sample-hold
vector 291 scenario.client2.tcp.conn-39 sndAck:vector ETV
attr interpolationmode sample-hold
vector 292 scenario.client1.tcp.conn-40 rcvAdv:vector ETV
attr interpolationmode sample-hold
vector 293 scenario.client1.tcp.conn-40 sndWnd:vector ETV
attr interpolationmode sample-hold
vector 294 scenario.client1.tcp.conn-40 tcpRcvQueueBytes:vector ETV
attr interpolationmode sample-hold
vector 295 scenario.client1.tcp.conn-40 rcvWnd:vector ETV
attr interpolationmode sample-hold
vector 296 scenario.client1.tcp.conn-40 sndAck:vector ETV
attr interpolationmode sample-hold
vector 297 scenario.client2.tcp.conn-39 rcvSeq:vector ETV
attr interpolationmode sample-hold
vector 298 scenario.client2.tcp.conn-39 rcvAck:vector ETV
attr interpolationmode sample-hold
vector 299 scenario.client2.tcp.conn-39 sndWnd:vector ETV
attr interpolationmode sample-hold
vector 300 scenario.client2.tcp.conn-39 unacked:vector ETV
attr interpolationmode sample-hold
vector 301 scenario.client1.tcp.conn-40 rcvSeq:vector ETV
attr interpolationmode sample-hold
vector 302 scenario.client1.tcp.conn-40 rcvAck:vector ETV
attr interpolationmode sample-hold
vector 303 scenario.client1.tcp.conn-40 unacked:vector ETV
attr interpolationmode sample-hold
vector 304 scenario.client1.tcp.conn-40 cwnd:vector ETV
attr interpolationmode sample-hold
vector 305 scenario.client1.tcp.conn-40 ssthresh:vector ETV
attr interpolationmode sample-hold
vector 306 scenario.client1.tcp.conn-40 dupAcks:vector ETV
attr interpolationmode sample-hold
vector 307 scenario.client2.tcp.conn-39 rtt:vector ETV
attr interpolationmode sample-hold
vector 308 scenario.client2.tcp.conn-39 srtt:vector ETV
attr interpolationmode sample-hold
vector 309 scenario.client2.tcp.conn-39 rttvar:vector ETV
attr interpolationmode sample-hold
vector 310 scenario.client2.tcp.conn-39 rto:vector ETV
attr interpolationmode sample-hold
vector 311 scenario.client2.tcp.conn-39 cwnd:vector ETV
attr interpolationmode sample-hold
vector 312 scenario.client2.tcp.conn-39 ssthresh:vector ETV
attr interpolationmode sample-hold
vector 313 scenario.client2.tcp.conn-39 dupAcks:vector ETV
attr interpolationmode sample-hold
vector 314 scenario.client2.tcp.conn-41 tcpRcvQueueBytes:vector ETV
attr interpolationmode sample-hold
vector 315 scenario.client2.tcp.conn-41 rcvAdv:vector ETV
attr interpolationmode sample-hold
vector 316 scenario.client2.tcp.conn-41 rcvWnd:vector ETV
attr interpolationmode sample-hold
vector 317 scenario.client2.tcp.conn-41 sndAck:vector ETV
attr interpolationmode sample-hold
vector 318 scenario.client3.tcp.conn-3 rcvSeq:vector ETV
attr interpolationmode sample-hold
vector 319 scenario.client3.tcp.conn-3 rcvAck:vector ETV
attr interpolationmode sample-hold
vector 320 scenario.client3.tcp.conn-42 rcvAdv:vector ETV
attr interpolationmode sample-hold
vector 321 scenario.client3.tcp.conn-42 sndWnd:vector ETV
attr interpolationmode sample-hold
vector 322 scenario.client3.tcp.conn-42 tcpRcvQueueBytes:vector ETV
attr interpolationmode sample-hold
vector 323 scenario.client3.tcp.conn-42 rcvWnd:vector ETV
attr interpolationmode sample-hold
vector 324 scenario.client3.tcp.conn-42 sndAck:vector ETV
attr interpolationmode sample-hold
vector 325 scenario.client2.tcp.conn-41 rcvSeq:vector ETV
attr interpolationmode sample-hold
vector 326 scenario.client2.tcp.conn-41 rcvAck:vector ETV
attr interpolationmode sample-hold
vector 327 scenario.client2.tcp.conn-41 sndWnd:vector ETV
attr interpolationmode sample-hold
vector 328 scenario.client2.tcp.conn-41 unacked:vector ETV
attr interpolationmode sample-hold
vector 329 scenario.client3.tcp.conn-42 rcvSeq:vector ETV
attr interpolationmode sample-hold
vector 330 scenario.client3.tcp.conn-42 rcvAck:vector ETV
attr interpolationmode sample-hold
vector 331 scenario.client3.tcp.conn-42 unacked:vector ETV
attr interpolationmode sample-hold
vector 332 scenario.client3.tcp.conn-42 cwnd:vector ETV
attr interpolationmode sample-hold
vector 333 scenario.client3.tcp.conn-42 ssthresh:vector ETV
attr interpolationmode sample-hold
vector 334 scenario.client3.tcp.conn-42 dupAcks:vector ETV
attr interpolationmode sample-hold
vector 335 scenario.client2.tcp.conn-41 rtt:vector ETV
attr interpolationmode sample-hold
vector 336 scenario.client2.tcp.conn-41 srtt:vector ETV
attr interpolationmode sample-hold
vector 337 scenario.client2.tcp.conn-41 rttvar:vector ETV
attr interpolationmode sample-hold
vector 338 scenario.client2.tcp.conn-41 rto:vector ETV
attr interpolationmode sample-hold
vector 339 scenario.client2.tcp.conn-41 cwnd:vector ETV
attr interpolationmode sample-hold
vector 340 scenario.client2.tcp.conn-41 ssthresh:vector ETV
attr interpolationmode sample-hold
vector 341 scenario.client2.tcp.conn-41 dupAcks:vector ETV
attr interpolationmode sample-hold
vector 342 scenario.client4.tcp.conn-43 tcpRcvQueueBytes:vector ETV
attr interpolationmode sample-hold
vector 343 scenario.client4.tcp.conn-43 rcvAdv:vector ETV
attr interpolationmode sample-hold
vector 344 scenario.client4.tcp.conn-43 rcvWnd:vector ETV
attr interpolationmode sample-hold
vector 345 scenario.client4.tcp.conn-43 sndAck:vector ETV
attr interpolationmode sample-hold
vector 346 scenario.client4.ppp[2].ppp rcvdPkFromHl:vector(packetBytes) ETV
attr interpolationmode none
attr source packetReceivedFromUpper
attr title "packets received from higher layer, vector(packetBytes)"
vector 347 scenario.client4.ppp[2].ppp.queue packetPushed:vector(packetBytes) ETV
attr interpolationmode none
attr title "packet pushed, vector(packetBytes)"
vector 348 scenario.client4.ppp[2].ppp.queue queueLength:vector ETV
attr interpolationmode sample-hold
attr source "count(packetPushed) - count(packetPopped) - count(packetRemoved) - count(packetDropped)"
attr title "queue length, vector"
vector 349 scenario.client4.ppp[2].ppp.queue packetPopped:vector(packetBytes) ETV
attr interpolationmode none
attr title "packet popped, vector(packetBytes)"
vector 350 scenario.client4.ppp[2].ppp.queue queueingTime:vector ETV
attr interpolationmode none
attr source queueingTime(packetPopped)
attr title "queueing times, vector"
attr unit s
vector 351 scenario.client4.ppp[2].ppp txPk:vector(packetBytes) ETV
attr interpolationmode none
attr source packetSentToLower
attr title "packets transmitted, vector(packetBytes)"
vector 352 scenario.client2.ppp[3].ppp rxPkOk:vector(packetBytes) ETV
attr interpolationmode none
attr source rxPkOk
attr title "packets received OK, vector(packetBytes)"
vector 353 scenario.client2.ppp[3].ppp passedUpPk:vector(packetBytes) ETV
attr interpolationmode none
attr source packetSentToUpper
attr title "packets passed to higher layer, vector(packetBytes)"
vector 354 scenario.client2.tcp.conn-44 rcvAdv:vector ETV
attr interpolationmode sample-hold
vector 355 scenario.client2.tcp.conn-44 sndWnd:vector ETV
attr interpolationmode sample-hold
vector 356 scenario.client2.tcp.conn-44 tcpRcvQueueBytes:vector ETV
attr interpolationmode sample-hold
vector 357 scenario.client2.tcp.conn-44 rcvWnd:vector ETV
attr interpolationmode sample-hold
vector 358 scenario.client2.tcp.conn-44 sndAck:vector ETV
attr interpolationmode sample-hold
vector 359 scenario.client2.ppp[3].ppp rcvdPkFromHl:vector(packetBytes) ETV
attr interpolationmode none
attr source packetReceivedFromUpper
attr title "packets received from higher layer, vector(packetBytes)"
vector 360 scenario.client2.ppp[3].ppp.queue packetPushed:vector(packetBytes) ETV
attr interpolationmode none
attr title "packet pushed, vector(packetBytes)"
vector 361 scenario.client2.ppp[3].ppp.queue queueLength:vector ETV
attr interpolationmode sample-hold
attr source "count(packetPushed) - count(packetPopped) - count(packetRemoved) - count(packetDropped)"
attr title "queue length, vector"
vector 362 scenario.client2.ppp[3].ppp.queue packetPopped:vector(packetBytes) ETV
attr interpolationmode none
attr title "packet popped, vector(packetBytes)"
vector 363 scenario.client2.ppp[3].ppp.queue queueingTime:vector ETV
attr interpolationmode none
attr source queueingTime(packetPopped)
attr title "queueing times, vector"
attr unit s
vector 364 scenario.client2.ppp[3].ppp txPk:vector(packetBytes) ETV
attr interpolationmode none
attr source packetSentToLower
attr title "packets transmitted, vector(packetBytes)"
vector 365 scenario.client4.ppp[2].ppp rxPkOk:vector(packetBytes) ETV
attr interpolationmode none
attr source rxPkOk
attr title "packets received OK, vector(packetBytes)"
vector 366 scenario.client4.ppp[2].ppp passedUpPk:vector(packetBytes) ETV
attr interpolationmode none
attr source packetSentToUpper
attr title "packets passed to higher layer, vector(packetBytes)"
vector 367 scenario.client4.tcp.conn-43 rcvSeq:vector ETV
attr interpolationmode sample-hold
vector 368 scenario.client4.tcp.conn-43 rcvAck:vector ETV
attr interpolationmode sample-hold
vector 369 scenario.client4.tcp.conn-43 sndWnd:vector ETV
attr interpolationmode sample-hold
vector 370 scenario.client4.tcp.conn-43 unacked:vector ETV
attr interpolationmode sample-hold
vector 371 scenario.client2.tcp.conn-44 rcvSeq:vector ETV
attr interpolationmode sample-hold
vector 372 scenario.client2.tcp.conn-44 rcvAck:vector ETV
attr interpolationmode sample-hold
vector 373 scenario.client2.tcp.conn-44 unacked:vector ETV
attr interpolationmode sample-hold
vector 374 scenario.client2.tcp.conn-44 cwnd:vector ETV
attr interpolationmode sample-hold
vector 375 scenario.client2.tcp.conn-44 ssthresh:vector ETV
attr interpolationmode sample-hold
vector 376 scenario.client2.tcp.conn-44 dupAcks:vector ETV
attr interpolationmode sample-hold
vector 377 scenario.client4.tcp.conn-43 rtt:vector ETV
attr interpolationmode sample-hold
vector 378 scenario.client4.tcp.conn-43 srtt:vector ETV
attr interpolationmode sample-hold
vector 379 scenario.client4.tcp.conn-43 rttvar:vector ETV
attr interpolationmode sample-hold
vector 380 scenario.client4.tcp.conn-43 rto:vector ETV
attr interpolationmode sample-hold
vector 381 scenario.client4.tcp.conn-43 cwnd:vector ETV
attr interpolationmode sample-hold
vector 382 scenario.client4.tcp.conn-43 ssthresh:vector ETV
attr interpolationmode sample-hold
vector 383 scenario.client4.tcp.conn-43 dupAcks:vector ETV
attr interpolationmode sample-hold
vector 384 scenario.client3.tcp.conn-45 tcpRcvQueueBytes:vector ETV
attr interpolationmode sample-hold
vector 385 scenario.client3.tcp.conn-45 rcvAdv:vector ETV
attr interpolationmode sample-hold
vector 386 scenario.client3.tcp.conn-45 rcvWnd:vector ETV
attr interpolationmode sample-hold
vector 387 scenario.client3.tcp.conn-45 sndAck:vector ETV
attr interpolationmode sample-hold
vector 388 scenario.client3.ppp[0].ppp rcvdPkFromHl:vector(packetBytes) ETV
attr interpolationmode none
attr source packetReceivedFromUpper
attr title "packets received from higher layer, vector(packetBytes)"
vector 389 scenario.client3.ppp[0].ppp.queue packetPushed:vector(packetBytes) ETV
attr interpolationmode none
attr title "packet pushed, vector(packetBytes)"
vector 390 scenario.client3.ppp[0].ppp.queue queueLength:vector ETV
attr interpolationmode sample-hold
attr source "count(packetPushed) - count(packetPopped) - count(packetRemoved) - count(packetDropped)"
attr title "queue length, vector"
vector 391 scenario.client3.ppp[0].ppp.queue packetPopped:vector(packetBytes) ETV
attr interpolationmode none
attr title "packet popped, vector(packetBytes)"
vector 392 scenario.client3.ppp[0].ppp.queue queueingTime:vector ETV
attr interpolationmode none
attr source queueingTime(packetPopped)
attr title "queueing times, vector"
attr unit s
vector 393 scenario.client3.ppp[0].ppp txPk:vector(packetBytes) ETV
attr interpolationmode none
attr source packetSentToLower
attr title "packets transmitted, vector(packetBytes)"
vector 394 scenario.client0.ppp[2].ppp rxPkOk:vector(packetBytes) ETV
attr interpolationmode none
attr source rxPkOk
attr title "packets received OK, vector(packetBytes)"
vector 395 scenario.client0.ppp[2].ppp passedUpPk:vector(packetBytes) ETV
attr interpolationmode none
attr source packetSentToUpper
attr title "packets passed to higher layer, vector(packetBytes)"
vector 396 scenario.client0.tcp.conn-46 rcvAdv:vector ETV
attr interpolationmode sample-hold
vector 397 scenario.client0.tcp.conn-46 sndWnd:vector ETV
attr interpolationmode sample-hold
vector 398 scenario.client0.tcp.conn-46 tcpRcvQueueBytes:vector ETV
attr interpolationmode sample-hold
vector 399 scenario.client0.tcp.conn-46 rcvWnd:vector ETV
attr interpolationmode sample-hold
vector 400 scenario.client0.tcp.conn-46 sndAck:vector ETV
attr interpolationmode sample-hold
vector 401 scenario.client0.ppp[2].ppp rcvdPkFromHl:vector(packetBytes) ETV
attr interpolationmode none
attr source packetReceivedFromUpper
attr title "packets received from higher layer, vector(packetBytes)"
vector 402 scenario.client0.ppp[2].ppp.queue packetPushed:vector(packetBytes) ETV
attr interpolationmode none
attr title "packet pushed, vector(packetBytes)"
vector 403 scenario.client0.ppp[2].ppp.queue queueLength:vector ETV
attr interpolationmode sample-hold
attr source "count(packetPushed) - count(packetPopped) - count(packetRemoved) - count(packetDropped)"
attr title "queue length, vector"
vector 404 scenario.client0.ppp[2].ppp.queue packetPopped:vector(packetBytes) ETV
attr interpolationmode none
attr title "packet popped, vector(packetBytes)"
vector 405 scenario.client0.ppp[2].ppp.queue queueingTime:vector ETV
attr interpolationmode none
attr source queueingTime(packetPopped)
attr title "queueing times, vector"
attr unit s
vector 406 scenario.client0.ppp[2].ppp txPk:vector(packetBytes) ETV
attr interpolationmode none
attr source packetSentToLower
attr title "packets transmitted, vector(packetBytes)"
vector 407 scenario.client3.ppp[0].ppp rxPkOk:vector(packetBytes) ETV
attr interpolationmode none
attr source rxPkOk
attr title "packets received OK, vector(packetBytes)"
vector 408 scenario.client3.ppp[0].ppp passedUpPk:vector(packetBytes) ETV
attr interpolationmode none
attr source packetSentToUpper
attr title "packets passed to higher layer, vector(packetBytes)"
vector 409 scenario.client3.tcp.conn-45 rcvSeq:vector ETV
attr interpolationmode sample-hold
vector 410 scenario.client3.tcp.conn-45 rcvAck:vector ETV
attr interpolationmode sample-hold
vector 411 scenario.client3.tcp.conn-45 sndWnd:vector ETV
attr interpolationmode sample-hold
vector 412 scenario.client3.tcp.conn-45 unacked:vector ETV
attr interpolationmode sample-hold
vector 413 scenario.client0.tcp.conn-46 rcvSeq:vector ETV
attr interpolationmode sample-hold
vector 414 scenario.client0.tcp.conn-46 rcvAck:vector ETV
attr interpolationmode sample-hold
vector 415 scenario.client0.tcp.conn-46 unacked:vector ETV
attr interpolationmode sample-hold
vector 416 scenario.client0.tcp.conn-46 cwnd:vector ETV
attr interpolationmode sample-hold
vector 417 scenario.client0.tcp.conn-46 ssthresh:vector ETV
attr interpolationmode sample-hold
vector 418 scenario.client0.tcp.conn-46 dupAcks:vector ETV
attr interpolationmode sample-hold
vector 419 scenario.client3.tcp.conn-45 rtt:vector ETV
attr interpolationmode sample-hold
vector 420 scenario.client3.tcp.conn-45 srtt:vector ETV
attr interpolationmode sample-hold
vector 421 scenario.client3.tcp.conn-45 rttvar:vector ETV
attr interpolationmode sample-hold
vector 422 scenario.client3.tcp.conn-45 rto:vector ETV
attr interpolationmode sample-hold
vector 423 scenario.client3.tcp.conn-45 cwnd:vector ETV
attr interpolationmode sample-hold
vector 424 scenario.client3.tcp.conn-45 ssthresh:vector ETV
attr interpolationmode sample-hold
vector 425 scenario.client3.tcp.conn-45 dupAcks:vector ETV
attr interpolationmode sample-hold
vector 426 scenario.client3.tcp.conn-47 tcpRcvQueueBytes:vector ETV
attr interpolationmode sample-hold
vector 427 scenario.client3.tcp.conn-47 rcvAdv:vector ETV
attr interpolationmode sample-hold
vector 428 scenario.client3.tcp.conn-47 rcvWnd:vector ETV
attr interpolationmode sample-hold
vector 429 scenario.client3.tcp.conn-47 sndAck:vector ETV
attr interpolationmode sample-hold
vector 430 scenario.client3.ppp[1].ppp rcvdPkFromHl:vector(packetBytes) ETV
attr interpolationmode none
attr source packetReceivedFromUpper
attr title "packets received from higher layer, vector(packetBytes)"
vector 431 scenario.client3.ppp[1].ppp.queue packetPushed:vector(packetBytes) ETV
attr interpolationmode none
attr title "packet pushed, vector(packetBytes)"
vector 432 scenario.client3.ppp[1].ppp.queue queueLength:vector ETV
attr interpolationmode sample-hold
attr source "count(packetPushed) - count(packetPopped) - count(packetRemoved) - count(packetDropped)"
attr title "queue length, vector"
vector 433 scenario.client3.ppp[1].ppp.queue packetPopped:vector(packetBytes) ETV
attr interpolationmode none
attr title "packet popped, vector(packetBytes)"
vector 434 scenario.client3.ppp[1].ppp.queue queueingTime:vector ETV
attr interpolationmode none
attr source queueingTime(packetPopped)
attr title "queueing times, vector"
attr unit s
vector 435 scenario.client3.ppp[1].ppp txPk:vector(packetBytes) ETV
attr interpolationmode none
attr source packetSentToLower
attr title "packets transmitted, vector(packetBytes)"
vector 436 scenario.client1.ppp[2].ppp rxPkOk:vector(packetBytes) ETV
attr interpolationmode none
attr source rxPkOk
attr title "packets received OK, vector(packetBytes)"
vector 437 scenario.client1.ppp[2].ppp passedUpPk:vector(packetBytes) ETV
attr interpolationmode none
attr source packetSentToUpper
attr title "packets passed to higher layer, vector(packetBytes)"
vector 438 scenario.client1.tcp.conn-48 rcvAdv:vector ETV
attr interpolationmode sample-hold
vector 439 scenario.client1.tcp.conn-48 sndWnd:vector ETV
attr interpolationmode sample-hold
vector 440 scenario.client1.tcp.conn-48 tcpRcvQueueBytes:vector ETV
attr interpolationmode sample-hold
vector 441 scenario.client1.tcp.conn-48 rcvWnd:vector ETV
attr interpolationmode sample-hold
vector 442 scenario.client1.tcp.conn-48 sndAck:vector ETV
attr interpolationmode sample-hold
vector 443 scenario.client1.ppp[2].ppp rcvdPkFromHl:vector(packetBytes) ETV
attr interpolationmode none
attr source packetReceivedFromUpper
attr title "packets received from higher layer, vector(packetBytes)"
vector 444 scenario.client1.ppp[2].ppp.queue packetPushed:vector(packetBytes) ETV
attr interpolationmode none
attr title "packet pushed, vector(packetBytes)"
vector 445 scenario.client1.ppp[2].ppp.queue queueLength:vector ETV
attr interpolationmode sample-hold
attr source "count(packetPushed) - count(packetPopped) - count(packetRemoved) - count(packetDropped)"
attr title "queue length, vector"
vector 446 scenario.client1.ppp[2].ppp.queue packetPopped:vector(packetBytes) ETV
attr interpolationmode none
attr title "packet popped, vector(packetBytes)"
vector 447 scenario.client1.ppp[2].ppp.queue queueingTime:vector ETV
attr interpolationmode none
attr source queueingTime(packetPopped)
attr title "queueing times, vector"
attr unit s
vector 448 scenario.client1.ppp[2].ppp txPk:vector(packetBytes) ETV
attr interpolationmode none
attr source packetSentToLower
attr title "packets transmitted, vector(packetBytes)"
vector 449 scenario.client3.ppp[1].ppp rxPkOk:vector(packetBytes) ETV
attr interpolationmode none
attr source rxPkOk
attr title "packets received OK, vector(packetBytes)"
vector 450 scenario.client3.ppp[1].ppp passedUpPk:vector(packetBytes) ETV
attr interpolationmode none
attr source packetSentToUpper
attr title "packets passed to higher layer, vector(packetBytes)"
vector 451 scenario.client3.tcp.conn-47 rcvSeq:vector ETV
attr interpolationmode sample-hold
vector 452 scenario.client3.tcp.conn-47 rcvAck:vector ETV
attr interpolationmode sample-hold
vector 453 scenario.client3.tcp.conn-47 sndWnd:vector ETV
attr interpolationmode sample-hold
vector 454 scenario.client3.tcp.conn-47 unacked:vector ETV
attr interpolationmode sample-hold
vector 455 scenario.client1.tcp.conn-48 rcvSeq:vector ETV
attr interpolationmode sample-hold
vector 456 scenario.client1.tcp.conn-48 rcvAck:vector ETV
attr interpolationmode sample-hold
vector 457 scenario.client1.tcp.conn-48 unacked:vector ETV
attr interpolationmode sample-hold
vector 458 scenario.client1.tcp.conn-48 cwnd:vector ETV
attr interpolationmode sample-hold
vector 459 scenario.client1.tcp.conn-48 ssthresh:vector ETV
attr interpolationmode sample-hold
vector 460 scenario.client1.tcp.conn-48 dupAcks:vector ETV
attr interpolationmode sample-hold
vector 461 scenario.client3.tcp.conn-47 rtt:vector ETV
attr interpolationmode sample-hold
vector 462 scenario.client3.tcp.conn-47 srtt:vector ETV
attr interpolationmode sample-hold
vector 463 scenario.client3.tcp.conn-47 rttvar:vector ETV
attr interpolationmode sample-hold
vector 464 scenario.client3.tcp.conn-47 rto:vector ETV
attr interpolationmode sample-hold
vector 465 scenario.client3.tcp.conn-47 cwnd:vector ETV
attr interpolationmode sample-hold
vector 466 scenario.client3.tcp.conn-47 ssthresh:vector ETV
attr interpolationmode sample-hold
vector 467 scenario.client3.tcp.conn-47 dupAcks:vector ETV
attr interpolationmode sample-hold
vector 468 scenario.client1.tcp.conn-49 tcpRcvQueueBytes:vector ETV
attr interpolationmode sample-hold
vector 469 scenario.client1.tcp.conn-49 rcvAdv:vector ETV
attr interpolationmode sample-hold
vector 470 scenario.client1.tcp.conn-49 rcvWnd:vector ETV
attr interpolationmode sample-hold
vector 471 scenario.client1.tcp.conn-49 sndAck:vector ETV
attr interpolationmode sample-hold
vector 472 scenario.client4.tcp.conn-4 rcvSeq:vector ETV
attr interpolationmode sample-hold
vector 473 scenario.client4.tcp.conn-4 rcvAck:vector ETV
attr interpolationmode sample-hold
vector 474 scenario.client4.tcp.conn-50 rcvAdv:vector ETV
attr interpolationmode sample-hold
vector 475 scenario.client4.tcp.conn-50 sndWnd:vector ETV
attr interpolationmode sample-hold
vector 476 scenario.client4.tcp.conn-50 tcpRcvQueueBytes:vector ETV
attr interpolationmode sample-hold
vector 477 scenario.client4.tcp.conn-50 rcvWnd:vector ETV
attr interpolationmode sample-hold
vector 478 scenario.client4.tcp.conn-50 sndAck:vector ETV
attr interpolationmode sample-hold
vector 479 scenario.client1.tcp.conn-49 rcvSeq:vector ETV
attr interpolationmode sample-hold
vector 480 scenario.client1.tcp.conn-49 rcvAck:vector ETV
attr interpolationmode sample-hold
vector 481 scenario.client1.tcp.conn-49 sndWnd:vector ETV
attr interpolationmode sample-hold
vector 482 scenario.client1.tcp.conn-49 unacked:vector ETV
attr interpolationmode sample-hold
vector 483 scenario.client4.tcp.conn-50 rcvSeq:vector ETV
attr interpolationmode sample-hold
vector 484 scenario.client4.tcp.conn-50 rcvAck:vector ETV
attr interpolationmode sample-hold
vector 485 scenario.client4.tcp.conn-50 unacked:vector ETV
attr interpolationmode sample-hold
vector 486 scenario.client4.tcp.conn-50 cwnd:vector ETV
attr interpolationmode sample-hold
vector 487 scenario.client4.tcp.conn-50 ssthresh:vector ETV
attr interpolationmode sample-hold
vector 488 scenario.client4.tcp.conn-50 dupAcks:vector ETV
attr interpolationmode sample-hold
vector 489 scenario.client1.tcp.conn-49 rtt:vector ETV
attr interpolationmode sample-hold
vector 490 scenario.client1.tcp.conn-49 srtt:vector ETV
attr interpolationmode sample-hold
vector 491 scenario.client1.tcp.conn-49 rttvar:vector ETV
attr interpolationmode sample-hold
vector 492 scenario.client1.tcp.conn-49 rto:vector ETV
attr interpolationmode sample-hold
vector 493 scenario.client1.tcp.conn-49 cwnd:vector ETV
attr interpolationmode sample-hold
vector 494 scenario.client1.tcp.conn-49 ssthresh:vector ETV
attr interpolationmode sample-hold
vector 495 scenario.client1.tcp.conn-49 dupAcks:vector ETV
attr interpolationmode sample-hold
vector 496 scenario.client0.tcp.conn-51 tcpRcvQueueBytes:vector ETV
attr interpolationmode sample-hold
vector 497 scenario.client0.tcp.conn-51 rcvAdv:vector ETV
attr interpolationmode sample-hold
vector 498 scenario.client0.tcp.conn-51 rcvWnd:vector ETV
attr interpolationmode sample-hold
vector 499 scenario.client0.tcp.conn-51 sndAck:vector ETV
attr interpolationmode sample-hold
vector 500 scenario.client3.tcp.conn-52 rcvAdv:vector ETV
attr interpolationmode sample-hold
vector 501 scenario.client3.tcp.conn-52 sndWnd:vector ETV
attr interpolationmode sample-hold
vector 502 scenario.client3.tcp.conn-52 tcpRcvQueueBytes:vector ETV
attr interpolationmode sample-hold
vector 503 scenario.client3.tcp.conn-52 rcvWnd:vector ETV
attr interpolationmode sample-hold
vector 504 scenario.client3.tcp.conn-52 sndAck:vector ETV
attr interpolationmode sample-hold
vector 505 scenario.client0.tcp.conn-51 rcvSeq:vector ETV
attr interpolationmode sample-hold
vector 506 scenario.client0.tcp.conn-51 rcvAck:vector ETV
attr interpolationmode sample-hold
vector 507 scenario.client0.tcp.conn-51 sndWnd:vector ETV
attr interpolationmode sample-hold
vector 508 scenario.client0.tcp.conn-51 unacked:vector ETV
attr interpolationmode sample-hold
vector 509 scenario.client3.tcp.conn-52 rcvSeq:vector ETV
attr interpolationmode sample-hold
vector 510 scenario.client3.tcp.conn-52 rcvAck:vector ETV
attr interpolationmode sample-hold
vector 511 scenario.client3.tcp.conn-52 unacked:vector ETV
attr interpolationmode sample-hold
vector 512 scenario.client3.tcp.conn-52 cwnd:vector ETV
attr interpolationmode sample-hold
vector 513 scenario.client3.tcp.conn-52 ssthresh:vector ETV
attr interpolationmode sample-hold
vector 514 scenario.client3.tcp.conn-52 dupAcks:vector ETV
attr interpolationmode sample-hold
vector 515 scenario.client0.tcp.conn-51 rtt:vector ETV
attr interpolationmode sample-hold
vector 516 scenario.client0.tcp.conn-51 srtt:vector ETV
attr interpolationmode sample-hold
vector 517 scenario.client0.tcp.conn-51 rttvar:vector ETV
attr interpolationmode sample-hold
vector 518 scenario.client0.tcp.conn-51 rto:vector ETV
attr interpolationmode sample-hold
vector 519 scenario.client0.tcp.conn-51 cwnd:vector ETV
attr interpolationmode sample-hold
vector 520 scenario.client0.tcp.conn-51 ssthresh:vector ETV
attr interpolationmode sample-hold
vector 521 scenario.client0.tcp.conn-51 dupAcks:vector ETV
attr interpolationmode sample-hold
vector 522 scenario.client4.tcp.conn-53 tcpRcvQueueBytes:vector ETV
attr interpolationmode sample-hold
vector 523 scenario.client4.tcp.conn-53 rcvAdv:vector ETV
attr interpolationmode sample-hold
vector 524 scenario.client4.tcp.conn-53 rcvWnd:vector ETV
attr interpolationmode sample-hold
vector 525 scenario.client4.tcp.conn-53 sndAck:vector ETV
attr interpolationmode sample-hold
vector 526 scenario.client4.ppp[0].ppp rcvdPkFromHl:vector(packetBytes) ETV
attr interpolationmode none
attr source packetReceivedFromUpper
attr title "packets received from higher layer, vector(packetBytes)"
vector 527 scenario.client4.ppp[0].ppp.queue packetPushed:vector(packetBytes) ETV
attr interpolationmode none
attr title "packet pushed, vector(packetBytes)"
vector 528 scenario.client4.ppp[0].ppp.queue queueLength:vector ETV
attr interpolationmode sample-hold
attr source "count(packetPushed) - count(packetPopped) - count(packetRemoved) - count(packetDropped)"
attr title "queue length, vector"
vector 529 scenario.client4.ppp[0].ppp.queue packetPopped:vector(packetBytes) ETV
attr interpolationmode none
attr title "packet popped, vector(packetBytes)"
vector 530 scenario.client4.ppp[0].ppp.queue queueingTime:vector ETV
attr interpolationmode none
attr source queueingTime(packetPopped)
attr title "queueing times, vector"
attr unit s
vector 531 scenario.client4.ppp[0].ppp txPk:vector(packetBytes) ETV
attr interpolationmode none
attr source packetSentToLower
attr title "packets transmitted, vector(packetBytes)"
vector 532 scenario.client0.ppp[3].ppp rxPkOk:vector(packetBytes) ETV
attr interpolationmode none
attr source rxPkOk
attr title "packets received OK, vector(packetBytes)"
vector 533 scenario.client0.ppp[3].ppp passedUpPk:vector(packetBytes) ETV
attr interpolationmode none
attr source packetSentToUpper
attr title "packets passed to higher layer, vector(packetBytes)"
vector 534 scenario.client0.tcp.conn-54 rcvAdv:vector ETV
attr interpolationmode sample-hold
vector 535 scenario.client0.tcp.conn-54 sndWnd:vector ETV
attr interpolationmode sample-hold
vector 536 scenario.client0.tcp.conn-54 tcpRcvQueueBytes:vector ETV
attr interpolationmode sample-hold
vector 537 scenario.client0.tcp.conn-54 rcvWnd:vector ETV
attr interpolationmode sample-hold
vector 538 scenario.client0.tcp.conn-54 sndAck:vector ETV
attr interpolationmode sample-hold
vector 539 scenario.client0.ppp[3].ppp rcvdPkFromHl:vector(packetBytes) ETV
attr interpolationmode none
attr source packetReceivedFromUpper
attr title "packets received from higher layer, vector(packetBytes)"
vector 540 scenario.client0.ppp[3].ppp.queue packetPushed:vector(packetBytes) ETV
attr interpolationmode none
attr title "packet pushed, vector(packetBytes)"
vector 541 scenario.client0.ppp[3].ppp.queue queueLength:vector ETV
attr interpolationmode sample-hold
attr source "count(packetPushed) - count(packetPopped) - count(packetRemoved) - count(packetDropped)"
attr title "queue length, vector"
vector 542 scenario.client0.ppp[3].ppp.queue packetPopped:vector(packetBytes) ETV
attr interpolationmode none
attr title "packet popped, vector(packetBytes)"
vector 543 scenario.client0.ppp[3].ppp.queue queueingTime:vector ETV
attr interpolationmode none
attr source queueingTime(packetPopped)
attr title "queueing times, vector"
attr unit s
vector 544 scenario.client0.ppp[3].ppp txPk:vector(packetBytes) ETV
attr interpolationmode none
attr source packetSentToLower
attr title "packets transmitted, vector(packetBytes)"
vector 545 scenario.client4.ppp[0].ppp rxPkOk:vector(packetBytes) ETV
attr interpolationmode none
attr source rxPkOk
attr title "packets received OK, vector(packetBytes)"
vector 546 scenario.client4.ppp[0].ppp passedUpPk:vector(packetBytes) ETV
attr interpolationmode none
attr source packetSentToUpper
attr title "packets passed to higher layer, vector(packetBytes)"
vector 547 scenario.client4.tcp.conn-53 rcvSeq:vector ETV
attr interpolationmode sample-hold
vector 548 scenario.client4.tcp.conn-53 rcvAck:vector ETV
attr interpolationmode sample-hold
vector 549 scenario.client4.tcp.conn-53 sndWnd:vector ETV
attr interpolationmode sample-hold
vector 550 scenario.client4.tcp.conn-53 unacked:vector ETV
attr interpolationmode sample-hold
vector 551 scenario.client0.tcp.conn-54 rcvSeq:vector ETV
attr interpolationmode sample-hold
vector 552 scenario.client0.tcp.conn-54 rcvAck:vector ETV
attr interpolationmode sample-hold
vector 553 scenario.client0.tcp.conn-54 unacked:vector ETV
attr interpolationmode sample-hold
vector 554 scenario.client0.tcp.conn-54 cwnd:vector ETV
attr interpolationmode sample-hold
vector 555 scenario.client0.tcp.conn-54 ssthresh:vector ETV
attr interpolationmode sample-hold
vector 556 scenario.client0.tcp.conn-54 dupAcks:vector ETV
attr interpolationmode sample-hold
vector 557 scenario.client4.tcp.conn-53 rtt:vector ETV
attr interpolationmode sample-hold
vector 558 scenario.client4.tcp.conn-53 srtt:vector ETV
attr interpolationmode sample-hold
vector 559 scenario.client4.tcp.conn-53 rttvar:vector ETV
attr interpolationmode sample-hold
vector 560 scenario.client4.tcp.conn-53 rto:vector ETV
attr interpolationmode sample-hold
vector 561 scenario.client4.tcp.conn-53 cwnd:vector ETV
attr interpolationmode sample-hold
vector 562 scenario.client4.tcp.conn-53 ssthresh:vector ETV
attr interpolationmode sample-hold
vector 563 scenario.client4.tcp.conn-53 dupAcks:vector ETV
attr interpolationmode sample-hold
vector 564 scenario.client0.tcp.conn-55 tcpRcvQueueBytes:vector ETV
attr interpolationmode sample-hold
vector 565 scenario.client0.tcp.conn-55 rcvAdv:vector ETV
attr interpolationmode sample-hold
vector 566 scenario.client0.tcp.conn-55 rcvWnd:vector ETV
attr interpolationmode sample-hold
vector 567 scenario.client0.tcp.conn-55 sndAck:vector ETV
attr interpolationmode sample-hold
vector 568 scenario.client4.tcp.conn-56 rcvAdv:vector ETV
attr interpolationmode sample-hold
vector 569 scenario.client4.tcp.conn-56 sndWnd:vector ETV
attr interpolationmode sample-hold
vector 570 scenario.client4.tcp.conn-56 tcpRcvQueueBytes:vector ETV
attr interpolationmode sample-hold
vector 571 scenario.client4.tcp.conn-56 rcvWnd:vector ETV
attr interpolationmode sample-hold
vector 572 scenario.client4.tcp.conn-56 sndAck:vector ETV
attr interpolationmode sample-hold
vector 573 scenario.client0.tcp.conn-55 rcvSeq:vector ETV
attr interpolationmode sample-hold
vector 574 scenario.client0.tcp.conn-55 rcvAck:vector ETV
attr interpolationmode sample-hold
vector 575 scenario.client0.tcp.conn-55 sndWnd:vector ETV
attr interpolationmode sample-hold
vector 576 scenario.client0.tcp.conn-55 unacked:vector ETV
attr interpolationmode sample-hold
vector 577 scenario.client4.tcp.conn-56 rcvSeq:vector ETV
attr interpolationmode sample-hold
vector 578 scenario.client4.tcp.conn-56 rcvAck:vector ETV
attr interpolationmode sample-hold
vector 579 scenario.client4.tcp.conn-56 unacked:vector ETV
attr interpolationmode sample-hold
vector 580 scenario.client4.tcp.conn-56 cwnd:vector ETV
attr interpolationmode sample-hold
vector 581 scenario.client4.tcp.conn-56 ssthresh:vector ETV
attr interpolationmode sample-hold
vector 582 scenario.client4.tcp.conn-56 dupAcks:vector ETV
attr interpolationmode sample-hold
vector 583 scenario.client0.tcp.conn-55 rtt:vector ETV
attr interpolationmode sample-hold
vector 584 scenario.client0.tcp.conn-55 srtt:vector ETV
attr interpolationmode sample-hold
vector 585 scenario.client0.tcp.conn-55 rttvar:vector ETV
attr interpolationmode sample-hold
vector 586 scenario.client0.tcp.conn-55 rto:vector ETV
attr interpolationmode sample-hold
vector 587 scenario.client0.tcp.conn-55 cwnd:vector ETV
attr interpolationmode sample-hold
vector 588 scenario.client0.tcp.conn-55 ssthresh:vector ETV
attr interpolationmode sample-hold
vector 589 scenario.client0.tcp.conn-55 dupAcks:vector ETV
attr interpolationmode sample-hold
vector 590 scenario.client2.tcp.conn-57 tcpRcvQueueBytes:vector ETV
attr interpolationmode sample-hold
vector 591 scenario.client2.tcp.conn-57 rcvAdv:vector ETV
attr interpolationmode sample-hold
vector 592 scenario.client2.tcp.conn-57 rcvWnd:vector ETV
attr interpolationmode sample-hold
vector 593 scenario.client2.tcp.conn-57 sndAck:vector ETV
attr interpolationmode sample-hold
vector 594 scenario.client4.tcp.conn-58 rcvAdv:vector ETV
attr interpolationmode sample-hold
vector 595 scenario.client4.tcp.conn-58 sndWnd:vector ETV
attr interpolationmode sample-hold
vector 596 scenario.client4.tcp.conn-58 tcpRcvQueueBytes:vector ETV
attr interpolationmode sample-hold
vector 597 scenario.client4.tcp.conn-58 rcvWnd:vector ETV
attr interpolationmode sample-hold
vector 598 scenario.client4.tcp.conn-58 sndAck:vector ETV
attr interpolationmode sample-hold
vector 599 scenario.client2.tcp.conn-57 rcvSeq:vector ETV
attr interpolationmode sample-hold
vector 600 scenario.client2.tcp.conn-57 rcvAck:vector ETV
attr interpolationmode sample-hold
vector 601 scenario.client2.tcp.conn-57 sndWnd:vector ETV
attr interpolationmode sample-hold
vector 602 scenario.client2.tcp.conn-57 unacked:vector ETV
attr interpolationmode sample-hold
vector 603 scenario.client4.tcp.conn-58 rcvSeq:vector ETV
attr interpolationmode sample-hold
vector 604 scenario.client4.tcp.conn-58 rcvAck:vector ETV
attr interpolationmode sample-hold
vector 605 scenario.client4.tcp.conn-58 unacked:vector ETV
attr interpolationmode sample-hold
vector 606 scenario.client4.tcp.conn-58 cwnd:vector ETV
attr interpolationmode sample-hold
vector 607 scenario.client4.tcp.conn-58 ssthresh:vector ETV
attr interpolationmode sample-hold
vector 608 scenario.client4.tcp.conn-58 dupAcks:vector ETV
attr interpolationmode sample-hold
vector 609 scenario.client2.tcp.conn-57 rtt:vector ETV
attr interpolationmode sample-hold
vector 610 scenario.client2.tcp.conn-57 srtt:vector ETV
attr interpolationmode sample-hold
vector 611 scenario.client2.tcp.conn-57 rttvar:vector ETV
attr interpolationmode sample-hold
vector 612 scenario.client2.tcp.conn-57 rto:vector ETV
attr interpolationmode sample-hold
vector 613 scenario.client2.tcp.conn-57 cwnd:vector ETV
attr interpolationmode sample-hold
vector 614 scenario.client2.tcp.conn-57 ssthresh:vector ETV
attr interpolationmode sample-hold
vector 615 scenario.client2.tcp.conn-57 dupAcks:vector ETV
attr interpolationmode sample-hold
vector 616 scenario.client1.tcp.conn-59 tcpRcvQueueBytes:vector ETV
attr interpolationmode sample-hold
vector 617 scenario.client1.tcp.conn-59 rcvAdv:vector ETV
attr interpolationmode sample-hold
vector 618 scenario.client1.tcp.conn-59 rcvWnd:vector ETV
attr interpolationmode sample-hold
vector 619 scenario.client1.tcp.conn-59 sndAck:vector ETV
attr interpolationmode sample-hold
vector 620 scenario.client3.tcp.conn-60 rcvAdv:vector ETV
attr interpolationmode sample-hold
vector 621 scenario.client3.tcp.conn-60 sndWnd:vector ETV
attr interpolationmode sample-hold
vector 622 scenario.client3.tcp.conn-60 tcpRcvQueueBytes:vector ETV
attr interpolationmode sample-hold
vector 623 scenario.client3.tcp.conn-60 rcvWnd:vector ETV
attr interpolationmode sample-hold
vector 624 scenario.client3.tcp.conn-60 sndAck:vector ETV
attr interpolationmode sample-hold
vector 625 scenario.client1.tcp.conn-59 rcvSeq:vector ETV
attr interpolationmode sample-hold
vector 626 scenario.client1.tcp.conn-59 rcvAck:vector ETV
attr interpolationmode sample-hold
vector 627 scenario.client1.tcp.conn-59 sndWnd:vector ETV
attr interpolationmode sample-hold
vector 628 scenario.client1.tcp.conn-59 unacked:vector ETV
attr interpolationmode sample-hold
vector 629 scenario.client3.tcp.conn-60 rcvSeq:vector ETV
attr interpolationmode sample-hold
vector 630 scenario.client3.tcp.conn-60 rcvAck:vector ETV
attr interpolationmode sample-hold
vector 631 scenario.client3.tcp.conn-60 unacked:vector ETV
attr interpolationmode sample-hold
vector 632 scenario.client3.tcp.conn-60 cwnd:vector ETV
attr interpolationmode sample-hold
vector 633 scenario.client3.tcp.conn-60 ssthresh:vector ETV
attr interpolationmode sample-hold
vector 634 scenario.client3.tcp.conn-60 dupAcks:vector ETV
attr interpolationmode sample-hold
vector 635 scenario.client1.tcp.conn-59 rtt:vector ETV
attr interpolationmode sample-hold
vector 636 scenario.client1.tcp.conn-59 srtt:vector ETV
attr interpolationmode sample-hold
vector 637 scenario.client1.tcp.conn-59 rttvar:vector ETV
attr interpolationmode sample-hold
vector 638 scenario.client1.tcp.conn-59 rto:vector ETV
attr interpolationmode sample-hold
vector 639 scenario.client1.tcp.conn-59 cwnd:vector ETV
attr interpolationmode sample-hold
vector 640 scenario.client1.tcp.conn-59 ssthresh:vector ETV
attr interpolationmode sample-hold
vector 641 scenario.client1.tcp.conn-59 dupAcks:vector ETV
attr interpolationmode sample-hold
0	78539 1769 0 2116 0 5.484771708853 73 0 1 36 36
1	80308 1665 0 2108 0 5.406696324839 69 0 1 34 34
2	81973 293 0 2131 0 5.487121634082 13 0 1 6 6
3	82266 301 0 2086 0 5.323847608386 13 0 1 6 6
4	82567 1769 0 2123 0 5.485647708853 73 0 1 36 36
5	84336 1683 0 2038 0 5.284190287179 69 0 1 34 34
6	86019 301 0 2036 0 5.283814287179 13 0 1 6 6
7	86320 301 0 2037 0 5.283814287179 13 0 1 6 6
8	86621 1666 0 2101 0 5.405820324839 69 0 1 34 34
9	88287 1683 0 2069 0 5.285066287179 69 0 1 34 34
10	89970 314 0 1985 0 4.828043903439 13 0 1 6 6
11	90284 308 0 2000 0 5.27007399469 13 0 1 6 6
12	90592 306 0 2138 0 5.487997634082 13 0 1 6 6
13	90898 316 0 2062 0 5.284690287179 13 0 1 6 6
14	91214 314 0 1992 0 4.828919903439 13 0 1 6 6
15	91528 10 0 0 0 0 1 0 0 0 0
16	91538 314 0 2093 0 5.324723608386 13 0 1 6 6
17	91852 314 0 2063 0 5.284690287179 13 0 1 6 6
18	92166 308 0 2007 0 5.27094999469 13 0 1 6 6
19	92474 10 0 0 0 0 1 0 0 0 0
20	92484 457 8 2113 1.017670216987 5.484387708853 18 0 0 0 0
21	92941 574 8 2113 1.017670216987 5.484387708853 19 7504 262149 4726186 1237054077634
22	93515 511 8 2113 1.017670216987 5.484387708853 18 7504 7504 135072 1013580288
23	94026 542 8 2113 1.017670216987 5.484387708853 18 0 254645 4328965 1102349292425
24	94568 952 11 2115 1.017670216987 5.484387708853 36 40 44 1466 59732
25	95520 952 11 2115 1.017670216987 5.484387708853 36 40 44 1466 59732
26	96472 1832 11 2115 1.017670216987 5.484387708853 72 0 1 36 36
27	98304 952 11 2115 1.017670216987 5.484387708853 36 40 44 1466 59732
28	99256 923 11 2115 1.017670216987 5.484387708853 36 0 0.000376 0.000376 1.41376e-007
29	100179 952 11 2115 1.017670216987 5.484387708853 36 47 51 1718 82020
30	101131 952 13 2117 1.018578216987 5.485271708853 36 47 51 1718 82020
31	102083 952 13 2117 1.018578216987 5.485271708853 36 40 44 1466 59732
32	103035 119 15 521 1.018578216987 2.255618531938 4 254417 563677 1727472 796304995852
33	103154 99 15 521 1.018578216987 2.255618531938 4 0 0 0 0
34	103253 577 15 2119 1.018578216987 5.485271708853 19 261922 261940 4976672 1303540221424
35	103830 54 15 28 1.018578216987 1.020370216987 2 7504 7504 15008 112620032
36	103884 892 15 2119 1.018578216987 5.485271708853 35 0 1 1 1
37	104776 512 15 2119 1.018578216987 5.485271708853 18 7503 7504 135071 1013565281
38	105288 548 15 2119 1.018578216987 5.485271708853 18 254418 254436 4579679 1165192208465
39	105836 952 17 2122 1.018578216987 5.485271708853 36 40 44 1466 59732
40	106788 952 17 2122 1.018578216987 5.485271708853 36 40 44 1466 59732
41	107740 1832 17 2122 1.018578216987 5.485271708853 72 0 1 36 36
42	109572 952 17 2122 1.018578216987 5.485271708853 36 40 44 1466 59732
43	110524 916 17 2122 1.018578216987 5.485271708853 36 0 0 0 0
44	111440 952 17 2122 1.018578216987 5.485271708853 36 47 51 1718 82020
45	112392 952 19 2124 1.019486216987 5.486147708853 36 47 51 1718 82020
46	113344 952 19 2124 1.019486216987 5.486147708853 36 40 44 1466 59732
47	114296 548 21 2126 1.019486216987 5.486147708853 18 254644 254645 4583609 1167192859161
[...]
397	234285 58 369 382 1.941705143468 1.943497143468 2 7504 7504 15008 112620032
398	234343 78 369 382 1.941705143468 1.943497143468 3 0 1 1 1
399	234421 58 369 382 1.941705143468 1.943497143468 2 7503 7504 15007 112605025
400	234479 62 369 382 1.941705143468 1.943497143468 2 485200 485201 970401 470839050401
401	234541 160 371 2130 1.941705143468 5.486737634082 6 40 44 252 10598
402	234701 160 371 2130 1.941705143468 5.486737634082 6 40 44 252 10598
403	234861 308 371 2130 1.941705143468 5.486737634082 12 0 1 6 6
404	235169 160 371 2130 1.941705143468 5.486737634082 6 40 44 252 10598
405	235329 154 371 2130 1.941705143468 5.486737634082 6 0 0 0 0
406	235483 160 371 2130 1.941705143468 5.486737634082 6 47 51 294 14420
407	235643 160 373 2132 1.942613143468 5.487621634082 6 47 51 294 14420
408	235803 160 373 2132 1.942613143468 5.487621634082 6 40 44 252 10598
409	235963 62 375 392 1.942613143468 1.944373143468 2 485426 485427 970853 471277773805
410	236025 62 375 392 1.942613143468 1.944373143468 2 485200 485201 970401 470839050401
411	236087 58 375 392 1.942613143468 1.944373143468 2 7503 7504 15007 112605025
412	236145 52 375 392 1.942613143468 1.944373143468 2 0 1 1 1
413	236197 31 382 382 1.943497143468 1.943497143468 1 485200 485200 485200 235419040000
414	236228 31 382 382 1.943497143468 1.943497143468 1 485427 485427 485427 235639372329
415	236259 26 382 382 1.943497143468 1.943497143468 1 0 0 0 0
416	236285 29 382 382 1.943497143468 1.943497143468 1 1072 1072 1072 1149184
417	236314 35 382 382 1.943497143468 1.943497143468 1 4294967295 4294967295 4294967295 1.844674406512e+019
418	236349 26 382 382 1.943497143468 1.943497143468 1 0 0 0 0
419	236375 32 392 392 1.944373143468 1.944373143468 1 0.00176 0.00176 0.00176 3.0976e-006
420	236407 32 392 392 1.944373143468 1.944373143468 1 0.00022 0.00022 0.00022 4.84e-008
421	236439 32 392 392 1.944373143468 1.944373143468 1 0.65647 0.65647 0.65647 0.4309528609
422	236471 31 392 392 1.944373143468 1.944373143468 1 2.6261 2.6261 2.6261 6.89640121
423	236502 29 392 392 1.944373143468 1.944373143468 1 1072 1072 1072 1149184
424	236531 35 392 392 1.944373143468 1.944373143468 1 4294967295 4294967295 4294967295 1.844674406512e+019
425	236566 26 392 392 1.944373143468 1.944373143468 1 0 0 0 0
426	236592 52 514 527 2.254710531938 2.256526531938 2 0 0 0 0
427	236644 91 514 527 2.254710531938 2.256526531938 3 7504 571409 1150322 653072800578
428	236735 58 514 527 2.254710531938 2.256526531938 2 7504 7504 15008 112620032
429	236793 57 514 527 2.254710531938 2.256526531938 2 0 563905 563905 317988849025
430	236850 165 517 2058 2.254710531938 5.284314287179 6 40 44 249 10353
431	237015 165 517 2058 2.254710531938 5.284314287179 6 40 44 249 10353
432	237180 318 517 2058 2.254710531938 5.284314287179 12 0 1 6 6
433	237498 165 517 2058 2.254710531938 5.284314287179 6 40 44 249 10353
434	237663 159 517 2058 2.254710531938 5.284314287179 6 0 0 0 0
435	237822 165 517 2058 2.254710531938 5.284314287179 6 47 51 291 14133
436	237987 165 519 2071 2.255618531938 5.285190287179 6 47 51 291 14133
437	238152 165 519 2071 2.255618531938 5.285190287179 6 40 44 249 10353
438	238317 93 521 534 2.255618531938 2.257410531938 3 571182 571182 1713546 978746631372
439	238410 58 521 534 2.255618531938 2.257410531938 2 7504 7504 15008 112620032
440	238468 78 521 534 2.255618531938 2.257410531938 3 0 1 1 1
441	238546 58 521 534 2.255618531938 2.257410531938 2 7503 7504 15007 112605025
442	238604 62 521 534 2.255618531938 2.257410531938 2 563678 563679 1127357 635466902725
443	238666 164 523 2032 2.255618531938 5.283422287179 6 40 44 252 10598
444	238830 164 523 2032 2.255618531938 5.283422287179 6 40 44 252 10598
445	238994 316 523 2032 2.255618531938 5.283422287179 12 0 1 6 6
446	239310 164 523 2032 2.255618531938 5.283422287179 6 40 44 252 10598
447	239474 158 523 2032 2.255618531938 5.283422287179 6 0 0 0 0
448	239632 164 523 2032 2.255618531938 5.283422287179 6 47 51 294 14420
449	239796 164 525 2043 2.256526531938 5.284314287179 6 47 51 294 14420
450	239960 164 525 2043 2.256526531938 5.284314287179 6 40 44 252 10598
451	240124 62 527 544 2.256526531938 2.258286531938 2 563904 563905 1127809 635976570241
452	240186 62 527 544 2.256526531938 2.258286531938 2 563678 563679 1127357 635466902725
453	240248 58 527 544 2.256526531938 2.258286531938 2 7503 7504 15007 112605025
454	240306 52 527 544 2.256526531938 2.258286531938 2 0 1 1 1
455	240358 31 534 534 2.257410531938 2.257410531938 1 563678 563678 563678 317732887684
456	240389 31 534 534 2.257410531938 2.257410531938 1 563905 563905 563905 317988849025
457	240420 26 534 534 2.257410531938 2.257410531938 1 0 0 0 0
458	240446 29 534 534 2.257410531938 2.257410531938 1 1072 1072 1072 1149184
459	240475 35 534 534 2.257410531938 2.257410531938 1 4294967295 4294967295 4294967295 1.844674406512e+019
460	240510 26 534 534 2.257410531938 2.257410531938 1 0 0 0 0
461	240536 32 544 544 2.258286531938 2.258286531938 1 0.00176 0.00176 0.00176 3.0976e-006
462	240568 32 544 544 2.258286531938 2.258286531938 1 0.00022 0.00022 0.00022 4.84e-008
463	240600 32 544 544 2.258286531938 2.258286531938 1 0.65647 0.65647 0.65647 0.4309528609
464	240632 31 544 544 2.258286531938 2.258286531938 1 2.6261 2.6261 2.6261 6.89640121
465	240663 29 544 544 2.258286531938 2.258286531938 1 1072 1072 1072 1149184
466	240692 35 544 544 2.258286531938 2.258286531938 1 4294967295 4294967295 4294967295 1.844674406512e+019
467	240727 26 544 544 2.258286531938 2.258286531938 1 0 0 0 0
468	240753 106 591 2024 2.397035764642 5.283422287179 4 0 0 0 0
469	240859 155 591 2024 2.397035764642 5.283422287179 5 7504 606990 2435464 1473803750416
470	241014 118 591 2024 2.397035764642 5.283422287179 4 7504 7504 30016 225240064
471	241132 121 591 2024 2.397035764642 5.283422287179 4 0 599486 1798458 1078150392588
472	241253 92 598 846 2.397943764642 2.79465386932 3 599258 698436 1941006 1260773326004
473	241345 77 598 846 2.397943764642 2.79465386932 3 0 0 0 0
474	241422 157 598 2050 2.397943764642 5.284314287179 5 606763 606767 3033821 1840813972021
475	241579 58 598 611 2.397943764642 2.399735764642 2 7504 7504 15008 112620032
476	241637 186 598 2050 2.397943764642 5.284314287179 7 0 1 1 1
477	241823 118 598 2050 2.397943764642 5.284314287179 4 7503 7504 30015 225225057
478	241941 126 598 2050 2.397943764642 5.284314287179 4 599259 599263 2397043 1436453785971
479	242067 126 604 2078 2.398851764642 5.285190287179 4 599485 599486 2397943 1437532657813
480	242193 126 604 2078 2.398851764642 5.285190287179 4 599259 599263 2397043 1436453785971
481	242319 118 604 2078 2.398851764642 5.285190287179 4 7503 7504 30015 225225057
482	242437 160 604 2078 2.398851764642 5.285190287179 6 0 2 4 6
483	242597 95 611 2050 2.399735764642 5.284314287179 3 599259 599261 1797780 1077337642802
484	242692 95 611 2050 2.399735764642 5.284314287179 3 599486 599486 1798458 1078150392588
485	242787 26 611 611 2.399735764642 2.399735764642 1 0 0 0 0
486	242813 29 611 611 2.399735764642 2.399735764642 1 1072 1072 1072 1149184
487	242842 35 611 611 2.399735764642 2.399735764642 1 4294967295 4294967295 4294967295 1.844674406512e+019
488	242877 80 611 2050 2.399735764642 5.284314287179 3 0 0 0 0
489	242957 99 621 2078 2.400611764642 5.285190287179 3 0.00176 0.001768 0.005288 9.321024e-006
490	243056 105 621 2078 2.400611764642 5.285190287179 3 0.00022 0.0005819375 0.0012144375 5.5720750390625e-007
491	243161 107 621 2078 2.400611764642 5.285190287179 3 0.50294771875 0.65647 1.73402146875 1.0140787382099
492	243268 104 621 2078 2.400611764642 5.285190287179 3 2.0123728125 2.6261 6.9373003125 16.230653421245
493	243372 89 621 2078 2.400611764642 5.285190287179 3 1072 2144 4824 8331584
494	243461 107 621 2078 2.400611764642 5.285190287179 3 4294967295 4294967295 12884901885 5.5340232195359e+019
495	243568 80 621 2078 2.400611764642 5.285190287179 3 0 0 0 0
496	243648 102 653 2128 2.4856279458 5.486737634082 4 0 0 0 0
497	243750 149 653 2128 2.4856279458 5.486737634082 5 7504 629138 2524056 1583314802192
498	243899 114 653 2128 2.4856279458 5.486737634082 4 7504 7504 30016 225240064
499	244013 117 653 2128 2.4856279458 5.486737634082 4 0 621634 1864902 1159286489868
500	244130 151 660 2134 2.4865359458 5.487621634082 5 628911 628915 3144562 1977654034384
501	244281 54 660 673 2.4865359458 2.4883279458 2 7504 7504 15008 112620032
502	244335 180 660 2134 2.4865359458 5.487621634082 7 0 1 1 1
503	244515 114 660 2134 2.4865359458 5.487621634082 4 7503 7504 30015 225225057
504	244629 122 660 2134 2.4865359458 5.487621634082 4 621407 621411 2485636 1544596581134
505	244751 122 666 2141 2.4874439458 5.488497634082 4 621633 621634 2486535 1545714076557
506	244873 122 666 2141 2.4874439458 5.488497634082 4 621407 621411 2485636 1544596581134
507	244995 114 666 2141 2.4874439458 5.488497634082 4 7503 7504 30015 225225057
508	245109 156 666 2141 2.4874439458 5.488497634082 6 0 2 4 6
509	245265 93 673 2134 2.4883279458 5.487621634082 3 621407 621410 1864225 1158444950213
510	245358 93 673 2134 2.4883279458 5.487621634082 3 621634 621634 1864902 1159286489868
511	245451 24 673 673 2.4883279458 2.4883279458 1 0 0 0 0
512	245475 27 673 673 2.4883279458 2.4883279458 1 1072 1072 1072 1149184
513	245502 33 673 673 2.4883279458 2.4883279458 1 4294967295 4294967295 4294967295 1.844674406512e+019
514	245535 78 673 2134 2.4883279458 5.487621634082 3 0 0 0 0
515	245613 97 683 2141 2.4892039458 5.488497634082 3 0.00176 0.001768 0.005288 9.321024e-006
516	245710 103 683 2141 2.4892039458 5.488497634082 3 0.00022 0.0005818125 0.0012153125 5.5788803515625e-007
517	245813 105 683 2141 2.4892039458 5.488497634082 3 0.50294746875 0.65647 1.73402221875 1.0140796359446
518	245918 102 683 2141 2.4892039458 5.488497634082 3 2.0123716875 2.6261 6.9373041875 16.230671881708
519	246020 87 683 2141 2.4892039458 5.488497634082 3 1072 2144 4824 8331584
520	246107 105 683 2141 2.4892039458 5.488497634082 3 4294967295 4294967295 12884901885 5.5340232195359e+019
521	246212 78 683 2141 2.4892039458 5.488497634082 3 0 0 0 0
522	246290 52 700 713 2.514090395825 2.515906395825 2 0 0 0 0
523	246342 91 700 713 2.514090395825 2.515906395825 3 7504 636254 1280012 809694615048
524	246433 58 700 713 2.514090395825 2.515906395825 2 7504 7504 15008 112620032
525	246491 57 700 713 2.514090395825 2.515906395825 2 0 628750 628750 395326562500
526	246548 164 703 2092 2.514090395825 5.324347608386 6 40 44 249 10353
527	246712 164 703 2092 2.514090395825 5.324347608386 6 40 44 249 10353
528	246876 316 703 2092 2.514090395825 5.324347608386 12 0 1 6 6
529	247192 164 703 2092 2.514090395825 5.324347608386 6 40 44 249 10353
530	247356 158 703 2092 2.514090395825 5.324347608386 6 0 0 0 0
531	247514 164 703 2092 2.514090395825 5.324347608386 6 47 51 291 14133
532	247678 164 705 2094 2.514998395825 5.325223608386 6 47 51 291 14133
533	247842 164 705 2094 2.514998395825 5.325223608386 6 40 44 249 10353
534	248006 93 707 720 2.514998395825 2.516790395825 3 636027 636027 1908081 1213591034187
535	248099 58 707 720 2.514998395825 2.516790395825 2 7504 7504 15008 112620032
536	248157 78 707 720 2.514998395825 2.516790395825 3 0 1 1 1
537	248235 58 707 720 2.514998395825 2.516790395825 2 7503 7504 15007 112605025
538	248293 62 707 720 2.514998395825 2.516790395825 2 628523 628524 1257047 790083580105
539	248355 164 709 2085 2.514998395825 5.323463608386 6 40 44 252 10598
540	248519 164 709 2085 2.514998395825 5.323463608386 6 40 44 252 10598
541	248683 316 709 2085 2.514998395825 5.323463608386 12 0 1 6 6
542	248999 164 709 2085 2.514998395825 5.323463608386 6 40 44 252 10598
543	249163 158 709 2085 2.514998395825 5.323463608386 6 0 0 0 0
544	249321 164 709 2085 2.514998395825 5.323463608386 6 47 51 294 14420
545	249485 164 711 2087 2.515906395825 5.324347608386 6 47 51 294 14420
546	249649 164 711 2087 2.515906395825 5.324347608386 6 40 44 252 10598
547	249813 62 713 730 2.515906395825 2.517666395825 2 628749 628750 1257499 790651867501
548	249875 62 713 730 2.515906395825 2.517666395825 2 628523 628524 1257047 790083580105
549	249937 58 713 730 2.515906395825 2.517666395825 2 7503 7504 15007 112605025
550	249995 52 713 730 2.515906395825 2.517666395825 2 0 1 1 1
551	250047 31 720 720 2.516790395825 2.516790395825 1 628523 628523 628523 395041161529
552	250078 31 720 720 2.516790395825 2.516790395825 1 628750 628750 628750 395326562500
553	250109 26 720 720 2.516790395825 2.516790395825 1 0 0 0 0
554	250135 29 720 720 2.516790395825 2.516790395825 1 1072 1072 1072 1149184
555	250164 35 720 720 2.516790395825 2.516790395825 1 4294967295 4294967295 4294967295 1.844674406512e+019
556	250199 26 720 720 2.516790395825 2.516790395825 1 0 0 0 0
557	250225 32 730 730 2.517666395825 2.517666395825 1 0.00176 0.00176 0.00176 3.0976e-006
558	250257 32 730 730 2.517666395825 2.517666395825 1 0.00022 0.00022 0.00022 4.84e-008
559	250289 32 730 730 2.517666395825 2.517666395825 1 0.65647 0.65647 0.65647 0.4309528609
560	250321 31 730 730 2.517666395825 2.517666395825 1 2.6261 2.6261 2.6261 6.89640121
561	250352 29 730 730 2.517666395825 2.517666395825 1 1072 1072 1072 1149184
562	250381 35 730 730 2.517666395825 2.517666395825 1 4294967295 4294967295 4294967295 1.844674406512e+019
563	250416 26 730 730 2.517666395825 2.517666395825 1 0 0 0 0
564	250442 106 732 2083 2.573249638356 5.323463608386 4 0 0 0 0
565	250548 155 732 2083 2.573249638356 5.323463608386 5 7504 651044 2611680 1695489469760
566	250703 118 732 2083 2.573249638356 5.323463608386 4 7504 7504 30016 225240064
567	250821 121 732 2083 2.573249638356 5.323463608386 4 0 643540 1930620 1242431194800
568	250942 157 739 2089 2.574157638356 5.324347608386 5 650817 650821 3254092 2117822948908
569	251099 58 739 752 2.574157638356 2.575949638356 2 7504 7504 15008 112620032
570	251157 186 739 2089 2.574157638356 5.324347608386 7 0 1 1 1
571	251343 118 739 2089 2.574157638356 5.324347608386 4 7503 7504 30015 225225057
572	251461 126 739 2089 2.574157638356 5.324347608386 4 643313 643317 2573260 1655416756910
573	251587 126 745 2096 2.575065638356 5.325223608386 4 643539 643540 2574159 1656573639321
574	251713 126 745 2096 2.575065638356 5.325223608386 4 643313 643317 2573260 1655416756910
575	251839 118 745 2096 2.575065638356 5.325223608386 4 7503 7504 30015 225225057
576	251957 160 745 2096 2.575065638356 5.325223608386 6 0 2 4 6
577	252117 95 752 2089 2.575949638356 5.324347608386 3 643313 643316 1929943 1241559994421
578	252212 95 752 2089 2.575949638356 5.324347608386 3 643540 643540 1930620 1242431194800
579	252307 26 752 752 2.575949638356 2.575949638356 1 0 0 0 0
580	252333 29 752 752 2.575949638356 2.575949638356 1 1072 1072 1072 1149184
581	252362 35 752 752 2.575949638356 2.575949638356 1 4294967295 4294967295 4294967295 1.844674406512e+019
582	252397 80 752 2089 2.575949638356 5.324347608386 3 0 0 0 0
583	252477 99 762 2096 2.576825638356 5.325223608386 3 0.00176 0.001768 0.005288 9.321024e-006
584	252576 105 762 2096 2.576825638356 5.325223608386 3 0.00022 0.0005818125 0.0012153125 5.5788803515625e-007
585	252681 107 762 2096 2.576825638356 5.325223608386 3 0.50294746875 0.65647 1.73402221875 1.0140796359446
586	252788 104 762 2096 2.576825638356 5.325223608386 3 2.0123716875 2.6261 6.9373041875 16.230671881708
587	252892 89 762 2096 2.576825638356 5.325223608386 3 1072 2144 4824 8331584
588	252981 107 762 2096 2.576825638356 5.325223608386 3 4294967295 4294967295 12884901885 5.5340232195359e+019
589	253088 80 762 2096 2.576825638356 5.325223608386 3 0 0 0 0
590	253168 103 839 1997 2.79374586932 5.26968999469 4 0 0 0 0
591	253271 151 839 1997 2.79374586932 5.26968999469 5 7504 706168 2832176 1994749286912
592	253422 115 839 1997 2.79374586932 5.26968999469 4 7504 7504 30016 225240064
593	253537 118 839 1997 2.79374586932 5.26968999469 4 0 698664 2095992 1464394154688
594	253655 153 846 2003 2.79465386932 5.27057399469 5 705941 705945 3529712 2491773360604
595	253808 56 846 859 2.79465386932 2.79644586932 2 7504 7504 15008 112620032
596	253864 181 846 2003 2.79465386932 5.27057399469 7 0 1 1 1
597	254045 115 846 2003 2.79465386932 5.27057399469 4 7503 7504 30015 225225057
598	254160 123 846 2003 2.79465386932 5.27057399469 4 698437 698441 2793756 1951268146894
599	254283 123 852 2010 2.79556186932 5.27144999469 4 698663 698664 2794655 1952524142257
600	254406 123 852 2010 2.79556186932 5.27144999469 4 698437 698441 2793756 1951268146894
601	254529 115 852 2010 2.79556186932 5.27144999469 4 7503 7504 30015 225225057
602	254644 156 852 2010 2.79556186932 5.27144999469 6 0 2 4 6
603	254800 93 859 2003 2.79644586932 5.27057399469 3 698437 698440 2095315 1463448316413
604	254893 93 859 2003 2.79644586932 5.27057399469 3 698664 698664 2095992 1464394154688
605	254986 25 859 859 2.79644586932 2.79644586932 1 0 0 0 0
606	255011 28 859 859 2.79644586932 2.79644586932 1 1072 1072 1072 1149184
607	255039 34 859 859 2.79644586932 2.79644586932 1 4294967295 4294967295 4294967295 1.844674406512e+019
608	255073 78 859 2003 2.79644586932 5.27057399469 3 0 0 0 0
609	255151 97 869 2010 2.79732186932 5.27144999469 3 0.00176 0.001768 0.005288 9.321024e-006
610	255248 103 869 2010 2.79732186932 5.27144999469 3 0.00022 0.0005818125 0.0012153125 5.5788803515625e-007
611	255351 105 869 2010 2.79732186932 5.27144999469 3 0.50294746875 0.65647 1.73402221875 1.0140796359446
612	255456 102 869 2010 2.79732186932 5.27144999469 3 2.0123716875 2.6261 6.9373041875 16.230671881708
613	255558 87 869 2010 2.79732186932 5.27144999469 3 1072 2144 4824 8331584
614	255645 105 869 2010 2.79732186932 5.27144999469 3 4294967295 4294967295 12884901885 5.5340232195359e+019
615	255750 78 869 2010 2.79732186932 5.27144999469 3 0 0 0 0
616	255828 106 981 2023 3.102986873989 5.283422287179 4 0 0 0 0
617	255934 155 981 2023 3.102986873989 5.283422287179 5 7504 783478 3141416 2455407415952
618	256089 118 981 2023 3.102986873989 5.283422287179 4 7504 7504 30016 225240064
619	256207 121 981 2023 3.102986873989 5.283422287179 4 0 775974 2327922 1806406946028
620	256328 158 988 2049 3.103894873989 5.284314287179 5 783251 783255 3916261 3067420044037
621	256486 59 988 1001 3.103894873989 3.105686873989 2 7504 7504 15008 112620032
622	256545 188 988 2049 3.103894873989 5.284314287179 7 0 1 1 1
623	256733 119 988 2049 3.103894873989 5.284314287179 4 7503 7504 30015 225225057
624	256852 127 988 2049 3.103894873989 5.284314287179 4 775747 775751 3102995 2407144492515
625	256979 127 994 2077 3.104802873989 5.285190287179 4 775973 775974 3103895 2408541042757
626	257106 127 994 2077 3.104802873989 5.285190287179 4 775747 775751 3102995 2407144492515
627	257233 119 994 2077 3.104802873989 5.285190287179 4 7503 7504 30015 225225057
628	257352 161 994 2077 3.104802873989 5.285190287179 6 0 2 4 6
629	257513 96 1001 2049 3.105686873989 5.284314287179 3 775747 775749 2327244 1805354878514
630	257609 96 1001 2049 3.105686873989 5.284314287179 3 775974 775974 2327922 1806406946028
631	257705 27 1001 1001 3.105686873989 3.105686873989 1 0 0 0 0
632	257732 30 1001 1001 3.105686873989 3.105686873989 1 1072 1072 1072 1149184
633	257762 36 1001 1001 3.105686873989 3.105686873989 1 4294967295 4294967295 4294967295 1.844674406512e+019
634	257798 81 1001 2049 3.105686873989 5.284314287179 3 0 0 0 0
635	257879 100 1011 2077 3.106562873989 5.285190287179 3 0.00176 0.001768 0.005288 9.321024e-006
636	257979 106 1011 2077 3.106562873989 5.285190287179 3 0.00022 0.0005819375 0.0012144375 5.5720750390625e-007
637	258085 108 1011 2077 3.106562873989 5.285190287179 3 0.50294771875 0.65647 1.73402146875 1.0140787382099
638	258193 105 1011 2077 3.106562873989 5.285190287179 3 2.0123728125 2.6261 6.9373003125 16.230653421245
639	258298 90 1011 2077 3.106562873989 5.285190287179 3 1072 2144 4824 8331584
640	258388 108 1011 2077 3.106562873989 5.285190287179 3 4294967295 4294967295 12884901885 5.5340232195359e+019
641	258496 81 1011 2077 3.106562873989 5.285190287179 3 0 0 0 0

