version 2
run BROADCAST7b-0-20220208-18:31:41-15600
attr configname BROADCAST7b
attr datetime 20220208-18:31:41
attr experiment BROADCAST7b
attr inifile omnetpp.ini
attr iterationvars ""
attr iterationvarsf ""
attr measurement ""
attr network scenario
attr processid 15600
attr repetition 0
attr replication #0
attr resultdir results
attr runnumber 0
attr seedset 0
param *.n 7
param **.client[*].app[0].nPar 7
param **.client[*].app[0].nNPar 0
param **.client[0].app[0].numMsg 4
param **.client[0].app[0].sendFrequency 2.5
param **.client[0].app[0].startSend 0.5
param **.client[1].app[0].numMsg 4
param **.client[1].app[0].sendFrequency 2.5
param **.client[1].app[0].startSend 3.5
param **.client[5].app[0].leave 1.0
param **.client[6].app[0].leave 4.0
param **.client[7].app[0].leave 10.0
param **.ppp[*].ppp.queue.typename "\"DropTailQueue\""
param **.tcp.typename "\"Tcp\""
param **.tcp.nagleEnabled false
param **.client[*].app[*].fPar 0
param **.numApps 1
param **.client[*].app[*].typename "\"Node\""
param **.client[*].app[0].localPort index+1000
param **.client[*].app[0].localPortL 1234
param **.client[*].app[0].connectAddress "\"\""
param **.client[*].app[0].connectPort 1234

vector 0 scenario.client[0].ppp[0].ppp transmissionState:vector ETV
attr interpolationmode sample-hold
attr source transmissionStateChanged
attr title "tx state, vector"
vector 1 scenario.client[0].ppp[1].ppp transmissionState:vector ETV
attr interpolationmode sample-hold
attr source transmissionStateChanged
attr title "tx state, vector"
vector 2 scenario.client[0].ppp[2].ppp transmissionState:vector ETV
attr interpolationmode sample-hold
attr source transmissionStateChanged
attr title "tx state, vector"
vector 3 scenario.client[0].ppp[3].ppp transmissionState:vector ETV
attr interpolationmode sample-hold
attr source transmissionStateChanged
attr title "tx state, vector"
vector 4 scenario.client[0].ppp[4].ppp transmissionState:vector ETV
attr interpolationmode sample-hold
attr source transmissionStateChanged
attr title "tx state, vector"
vector 5 scenario.client[0].ppp[5].ppp transmissionState:vector ETV
attr interpolationmode sample-hold
attr source transmissionStateChanged
attr title "tx state, vector"
vector 6 scenario.client[1].ppp[0].ppp transmissionState:vector ETV
attr interpolationmode sample-hold
attr source transmissionStateChanged
attr title "tx state, vector"
vector 7 scenario.client[1].ppp[1].ppp transmissionState:vector ETV
attr interpolationmode sample-hold
attr source transmissionStateChanged
attr title "tx state, vector"
vector 8 scenario.client[1].ppp[2].ppp transmissionState:vector ETV
attr interpolationmode sample-hold
attr source transmissionStateChanged
attr title "tx state, vector"
vector 9 scenario.client[1].ppp[3].ppp transmissionState:vector ETV
attr interpolationmode sample-hold
attr source transmissionStateChanged
attr title "tx state, vector"
vector 10 scenario.client[1].ppp[4].ppp transmissionState:vector ETV
attr interpolationmode sample-hold
attr source transmissionStateChanged
attr title "tx state, vector"
vector 11 scenario.client[1].ppp[5].ppp transmissionState:vector ETV
attr interpolationmode sample-hold
attr source transmissionStateChanged
attr title "tx state, vector"
vector 12 scenario.client[2].ppp[0].ppp transmissionState:vector ETV
attr interpolationmode sample-hold
attr source transmissionStateChanged
attr title "tx state, vector"
vector 13 scenario.client[2].ppp[1].ppp transmissionState:vector ETV
attr interpolationmode sample-hold
attr source transmissionStateChanged
attr title "tx state, vector"
vector 14 scenario.client[2].ppp[2].ppp transmissionState:vector ETV
attr interpolationmode sample-hold
attr source transmissionStateChanged
attr title "tx state, vector"
vector 15 scenario.client[2].ppp[3].ppp transmissionState:vector ETV
attr interpolationmode sample-hold
attr source transmissionStateChanged
attr title "tx state, vector"
vector 16 scenario.client[2].ppp[4].ppp transmissionState:vector ETV
attr interpolationmode sample-hold
attr source transmissionStateChanged
attr title "tx state, vector"
vector 17 scenario.client[2].ppp[5].ppp transmissionState:vector ETV
attr interpolationmode sample-hold
attr source transmissionStateChanged
attr title "tx state, vector"
vector 18 scenario.client[3].ppp[0].ppp transmissionState:vector ETV
attr interpolationmode sample-hold
attr source transmissionStateChanged
attr title "tx state, vector"
vector 19 scenario.client[3].ppp[1].ppp transmissionState:vector ETV
attr interpolationmode sample-hold
attr source transmissionStateChanged
attr title "tx state, vector"
vector 20 scenario.client[3].ppp[2].ppp transmissionState:vector ETV
attr interpolationmode sample-hold
attr source transmissionStateChanged
attr title "tx state, vector"
vector 21 scenario.client[3].ppp[3].ppp transmissionState:vector ETV
attr interpolationmode sample-hold
attr source transmissionStateChanged
attr title "tx state, vector"
vector 22 scenario.client[3].ppp[4].ppp transmissionState:vector ETV
attr interpolationmode sample-hold
attr source transmissionStateChanged
attr title "tx state, vector"
vector 23 scenario.client[3].ppp[5].ppp transmissionState:vector ETV
attr interpolationmode sample-hold
attr source transmissionStateChanged
attr title "tx state, vector"
vector 24 scenario.client[4].ppp[0].ppp transmissionState:vector ETV
attr interpolationmode sample-hold
attr source transmissionStateChanged
attr title "tx state, vector"
vector 25 scenario.client[4].ppp[1].ppp transmissionState:vector ETV
attr interpolationmode sample-hold
attr source transmissionStateChanged
attr title "tx state, vector"
vector 26 scenario.client[4].ppp[2].ppp transmissionState:vector ETV
attr interpolationmode sample-hold
attr source transmissionStateChanged
attr title "tx state, vector"
vector 27 scenario.client[4].ppp[3].ppp transmissionState:vector ETV
attr interpolationmode sample-hold
attr source transmissionStateChanged
attr title "tx state, vector"
vector 28 scenario.client[4].ppp[4].ppp transmissionState:vector ETV
attr interpolationmode sample-hold
attr source transmissionStateChanged
attr title "tx state, vector"
vector 29 scenario.client[4].ppp[5].ppp transmissionState:vector ETV
attr interpolationmode sample-hold
attr source transmissionStateChanged
attr title "tx state, vector"
vector 30 scenario.client[5].ppp[0].ppp transmissionState:vector ETV
attr interpolationmode sample-hold
attr source transmissionStateChanged
attr title "tx state, vector"
vector 31 scenario.client[5].ppp[1].ppp transmissionState:vector ETV
attr interpolationmode sample-hold
attr source transmissionStateChanged
attr title "tx state, vector"
vector 32 scenario.client[5].ppp[2].ppp transmissionState:vector ETV
attr interpolationmode sample-hold
attr source transmissionStateChanged
attr title "tx state, vector"
vector 33 scenario.client[5].ppp[3].ppp transmissionState:vector ETV
attr interpolationmode sample-hold
attr source transmissionStateChanged
attr title "tx state, vector"
vector 34 scenario.client[5].ppp[4].ppp transmissionState:vector ETV
attr interpolationmode sample-hold
attr source transmissionStateChanged
attr title "tx state, vector"
vector 35 scenario.client[5].ppp[5].ppp transmissionState:vector ETV
attr interpolationmode sample-hold
attr source transmissionStateChanged
attr title "tx state, vector"
vector 36 scenario.client[6].ppp[0].ppp transmissionState:vector ETV
attr interpolationmode sample-hold
attr source transmissionStateChanged
attr title "tx state, vector"
vector 37 scenario.client[6].ppp[1].ppp transmissionState:vector ETV
attr interpolationmode sample-hold
attr source transmissionStateChanged
attr title "tx state, vector"
vector 38 scenario.client[6].ppp[2].ppp transmissionState:vector ETV
attr interpolationmode sample-hold
attr source transmissionStateChanged
attr title "tx state, vector"
vector 39 scenario.client[6].ppp[3].ppp transmissionState:vector ETV
attr interpolationmode sample-hold
attr source transmissionStateChanged
attr title "tx state, vector"
vector 40 scenario.client[6].ppp[4].ppp transmissionState:vector ETV
attr interpolationmode sample-hold
attr source transmissionStateChanged
attr title "tx state, vector"
vector 41 scenario.client[6].ppp[5].ppp transmissionState:vector ETV
attr interpolationmode sample-hold
attr source transmissionStateChanged
attr title "tx state, vector"
vector 42 scenario.client[0].tcp.conn-49 tcpRcvQueueBytes:vector ETV
attr interpolationmode sample-hold
vector 43 scenario.client[0].tcp.conn-49 rcvAdv:vector ETV
attr interpolationmode sample-hold
vector 44 scenario.client[0].tcp.conn-49 rcvWnd:vector ETV
attr interpolationmode sample-hold
vector 45 scenario.client[0].tcp.conn-49 sndAck:vector ETV
attr interpolationmode sample-hold
vector 46 scenario.client[0].ppp[0].ppp rcvdPkFromHl:vector(packetBytes) ETV
attr interpolationmode none
attr source packetReceivedFromUpper
attr title "packets received from higher layer, vector(packetBytes)"
vector 47 scenario.client[0].ppp[0].ppp.queue packetPushed:vector(packetBytes) ETV
attr interpolationmode none
attr title "packet pushed, vector(packetBytes)"
vector 48 scenario.client[0].ppp[0].ppp.queue queueLength:vector ETV
attr interpolationmode sample-hold
attr source "count(packetPushed) - count(packetPopped) - count(packetRemoved) - count(packetDropped)"
attr title "queue length, vector"
vector 49 scenario.client[0].ppp[0].ppp.queue packetPopped:vector(packetBytes) ETV
attr interpolationmode none
attr title "packet popped, vector(packetBytes)"
vector 50 scenario.client[0].ppp[0].ppp.queue queueingTime:vector ETV
attr interpolationmode none
attr source queueingTime(packetPopped)
attr title "queueing times, vector"
attr unit s
vector 51 scenario.client[0].ppp[0].ppp txPk:vector(packetBytes) ETV
attr interpolationmode none
attr source packetSentToLower
attr title "packets transmitted, vector(packetBytes)"
vector 52 scenario.client[1].ppp[0].ppp rxPkOk:vector(packetBytes) ETV
attr interpolationmode none
attr source rxPkOk
attr title "packets received OK, vector(packetBytes)"
vector 53 scenario.client[1].ppp[0].ppp passedUpPk:vector(packetBytes) ETV
attr interpolationmode none
attr source packetSentToUpper
attr title "packets passed to higher layer, vector(packetBytes)"
vector 54 scenario.client[1].tcp.conn-1 rcvSeq:vector ETV
attr interpolationmode sample-hold
vector 55 scenario.client[1].tcp.conn-1 rcvAck:vector ETV
attr interpolationmode sample-hold
vector 56 scenario.client[1].tcp.conn-50 rcvAdv:vector ETV
attr interpolationmode sample-hold
vector 57 scenario.client[1].tcp.conn-50 sndWnd:vector ETV
attr interpolationmode sample-hold
vector 58 scenario.client[1].tcp.conn-50 tcpRcvQueueBytes:vector ETV
attr interpolationmode sample-hold
vector 59 scenario.client[1].tcp.conn-50 rcvWnd:vector ETV
attr interpolationmode sample-hold
vector 60 scenario.client[1].tcp.conn-50 sndAck:vector ETV
attr interpolationmode sample-hold
vector 61 scenario.client[1].ppp[0].ppp rcvdPkFromHl:vector(packetBytes) ETV
attr interpolationmode none
attr source packetReceivedFromUpper
attr title "packets received from higher layer, vector(packetBytes)"
vector 62 scenario.client[1].ppp[0].ppp.queue packetPushed:vector(packetBytes) ETV
attr interpolationmode none
attr title "packet pushed, vector(packetBytes)"
vector 63 scenario.client[1].ppp[0].ppp.queue queueLength:vector ETV
attr interpolationmode sample-hold
attr source "count(packetPushed) - count(packetPopped) - count(packetRemoved) - count(packetDropped)"
attr title "queue length, vector"
vector 64 scenario.client[1].ppp[0].ppp.queue packetPopped:vector(packetBytes) ETV
attr interpolationmode none
attr title "packet popped, vector(packetBytes)"
vector 65 scenario.client[1].ppp[0].ppp.queue queueingTime:vector ETV
attr interpolationmode none
attr source queueingTime(packetPopped)
attr title "queueing times, vector"
attr unit s
vector 66 scenario.client[1].ppp[0].ppp txPk:vector(packetBytes) ETV
attr interpolationmode none
attr source packetSentToLower
attr title "packets transmitted, vector(packetBytes)"
vector 67 scenario.client[0].ppp[0].ppp rxPkOk:vector(packetBytes) ETV
attr interpolationmode none
attr source rxPkOk
attr title "packets received OK, vector(packetBytes)"
vector 68 scenario.client[0].ppp[0].ppp passedUpPk:vector(packetBytes) ETV
attr interpolationmode none
attr source packetSentToUpper
attr title "packets passed to higher layer, vector(packetBytes)"
vector 69 scenario.client[0].tcp.conn-49 rcvSeq:vector ETV
attr interpolationmode sample-hold
vector 70 scenario.client[0].tcp.conn-49 rcvAck:vector ETV
attr interpolationmode sample-hold
vector 71 scenario.client[0].tcp.conn-49 sndWnd:vector ETV
attr interpolationmode sample-hold
vector 72 scenario.client[0].tcp.conn-49 unacked:vector ETV
attr interpolationmode sample-hold
vector 73 scenario.client[1].tcp.conn-50 rcvSeq:vector ETV
attr interpolationmode sample-hold
vector 74 scenario.client[1].tcp.conn-50 rcvAck:vector ETV
attr interpolationmode sample-hold
vector 75 scenario.client[1].tcp.conn-50 unacked:vector ETV
attr interpolationmode sample-hold
vector 76 scenario.client[1].tcp.conn-50 cwnd:vector ETV
attr interpolationmode sample-hold
vector 77 scenario.client[1].tcp.conn-50 ssthresh:vector ETV
attr interpolationmode sample-hold
vector 78 scenario.client[1].tcp.conn-50 dupAcks:vector ETV
attr interpolationmode sample-hold
vector 79 scenario.client[1].tcp.conn-51 tcpRcvQueueBytes:vector ETV
attr interpolationmode sample-hold
vector 80 scenario.client[1].tcp.conn-51 rcvAdv:vector ETV
attr interpolationmode sample-hold
vector 81 scenario.client[1].tcp.conn-51 rcvWnd:vector ETV
attr interpolationmode sample-hold
vector 82 scenario.client[1].tcp.conn-51 sndAck:vector ETV
attr interpolationmode sample-hold
vector 83 scenario.client[0].tcp.conn-49 rtt:vector ETV
attr interpolationmode sample-hold
vector 84 scenario.client[0].tcp.conn-49 srtt:vector ETV
attr interpolationmode sample-hold
vector 85 scenario.client[0].tcp.conn-49 rttvar:vector ETV
attr interpolationmode sample-hold
vector 86 scenario.client[0].tcp.conn-49 rto:vector ETV
attr interpolationmode sample-hold
vector 87 scenario.client[0].tcp.conn-49 cwnd:vector ETV
attr interpolationmode sample-hold
vector 88 scenario.client[0].tcp.conn-49 ssthresh:vector ETV
attr interpolationmode sample-hold
vector 89 scenario.client[0].tcp.conn-49 dupAcks:vector ETV
attr interpolationmode sample-hold
vector 90 scenario.client[0].tcp.conn-0 rcvSeq:vector ETV
attr interpolationmode sample-hold
vector 91 scenario.client[0].tcp.conn-0 rcvAck:vector ETV
attr interpolationmode sample-hold
vector 92 scenario.client[0].tcp.conn-52 rcvAdv:vector ETV
attr interpolationmode sample-hold
vector 93 scenario.client[0].tcp.conn-52 sndWnd:vector ETV
attr interpolationmode sample-hold
vector 94 scenario.client[0].tcp.conn-52 tcpRcvQueueBytes:vector ETV
attr interpolationmode sample-hold
vector 95 scenario.client[0].tcp.conn-52 rcvWnd:vector ETV
attr interpolationmode sample-hold
vector 96 scenario.client[0].tcp.conn-52 sndAck:vector ETV
attr interpolationmode sample-hold
vector 97 scenario.client[1].tcp.conn-51 rcvSeq:vector ETV
attr interpolationmode sample-hold
vector 98 scenario.client[1].tcp.conn-51 rcvAck:vector ETV
attr interpolationmode sample-hold
vector 99 scenario.client[1].tcp.conn-51 sndWnd:vector ETV
attr interpolationmode sample-hold
vector 100 scenario.client[1].tcp.conn-51 unacked:vector ETV
attr interpolationmode sample-hold
vector 101 scenario.client[0].tcp.conn-52 rcvSeq:vector ETV
attr interpolationmode sample-hold
vector 102 scenario.client[0].tcp.conn-52 rcvAck:vector ETV
attr interpolationmode sample-hold
vector 103 scenario.client[0].tcp.conn-52 unacked:vector ETV
attr interpolationmode sample-hold
vector 104 scenario.client[0].tcp.conn-52 cwnd:vector ETV
attr interpolationmode sample-hold
vector 105 scenario.client[0].tcp.conn-52 ssthresh:vector ETV
attr interpolationmode sample-hold
vector 106 scenario.client[0].tcp.conn-52 dupAcks:vector ETV
attr interpolationmode sample-hold
vector 107 scenario.client[1].tcp.conn-51 rtt:vector ETV
attr interpolationmode sample-hold
vector 108 scenario.client[1].tcp.conn-51 srtt:vector ETV
attr interpolationmode sample-hold
vector 109 scenario.client[1].tcp.conn-51 rttvar:vector ETV
attr interpolationmode sample-hold
vector 110 scenario.client[1].tcp.conn-51 rto:vector ETV
attr interpolationmode sample-hold
vector 111 scenario.client[1].tcp.conn-51 cwnd:vector ETV
attr interpolationmode sample-hold
vector 112 scenario.client[1].tcp.conn-51 ssthresh:vector ETV
attr interpolationmode sample-hold
vector 113 scenario.client[1].tcp.conn-51 dupAcks:vector ETV
attr interpolationmode sample-hold
vector 114 scenario.client[0].tcp.conn-53 tcpRcvQueueBytes:vector ETV
attr interpolationmode sample-hold
vector 115 scenario.client[0].tcp.conn-53 rcvAdv:vector ETV
attr interpolationmode sample-hold
vector 116 scenario.client[0].tcp.conn-53 rcvWnd:vector ETV
attr interpolationmode sample-hold
vector 117 scenario.client[0].tcp.conn-53 sndAck:vector ETV
attr interpolationmode sample-hold
vector 118 scenario.client[0].ppp[1].ppp rcvdPkFromHl:vector(packetBytes) ETV
attr interpolationmode none
attr source packetReceivedFromUpper
attr title "packets received from higher layer, vector(packetBytes)"
vector 119 scenario.client[0].ppp[1].ppp.queue packetPushed:vector(packetBytes) ETV
attr interpolationmode none
attr title "packet pushed, vector(packetBytes)"
vector 120 scenario.client[0].ppp[1].ppp.queue queueLength:vector ETV
attr interpolationmode sample-hold
attr source "count(packetPushed) - count(packetPopped) - count(packetRemoved) - count(packetDropped)"
attr title "queue length, vector"
vector 121 scenario.client[0].ppp[1].ppp.queue packetPopped:vector(packetBytes) ETV
attr interpolationmode none
attr title "packet popped, vector(packetBytes)"
vector 122 scenario.client[0].ppp[1].ppp.queue queueingTime:vector ETV
attr interpolationmode none
attr source queueingTime(packetPopped)
attr title "queueing times, vector"
attr unit s
vector 123 scenario.client[0].ppp[1].ppp txPk:vector(packetBytes) ETV
attr interpolationmode none
attr source packetSentToLower
attr title "packets transmitted, vector(packetBytes)"
vector 124 scenario.client[2].ppp[0].ppp rxPkOk:vector(packetBytes) ETV
attr interpolationmode none
attr source rxPkOk
attr title "packets received OK, vector(packetBytes)"
vector 125 scenario.client[2].ppp[0].ppp passedUpPk:vector(packetBytes) ETV
attr interpolationmode none
attr source packetSentToUpper
attr title "packets passed to higher layer, vector(packetBytes)"
vector 126 scenario.client[2].tcp.conn-2 rcvSeq:vector ETV
attr interpolationmode sample-hold
vector 127 scenario.client[2].tcp.conn-2 rcvAck:vector ETV
attr interpolationmode sample-hold
vector 128 scenario.client[2].tcp.conn-54 rcvAdv:vector ETV
attr interpolationmode sample-hold
vector 129 scenario.client[2].tcp.conn-54 sndWnd:vector ETV
attr interpolationmode sample-hold
vector 130 scenario.client[2].tcp.conn-54 tcpRcvQueueBytes:vector ETV
attr interpolationmode sample-hold
vector 131 scenario.client[2].tcp.conn-54 rcvWnd:vector ETV
attr interpolationmode sample-hold
vector 132 scenario.client[2].tcp.conn-54 sndAck:vector ETV
attr interpolationmode sample-hold
vector 133 scenario.client[2].ppp[0].ppp rcvdPkFromHl:vector(packetBytes) ETV
attr interpolationmode none
attr source packetReceivedFromUpper
attr title "packets received from higher layer, vector(packetBytes)"
vector 134 scenario.client[2].ppp[0].ppp.queue packetPushed:vector(packetBytes) ETV
attr interpolationmode none
attr title "packet pushed, vector(packetBytes)"
vector 135 scenario.client[2].ppp[0].ppp.queue queueLength:vector ETV
attr interpolationmode sample-hold
attr source "count(packetPushed) - count(packetPopped) - count(packetRemoved) - count(packetDropped)"
attr title "queue length, vector"
vector 136 scenario.client[2].ppp[0].ppp.queue packetPopped:vector(packetBytes) ETV
attr interpolationmode none
attr title "packet popped, vector(packetBytes)"
vector 137 scenario.client[2].ppp[0].ppp.queue queueingTime:vector ETV
attr interpolationmode none
attr source queueingTime(packetPopped)
attr title "queueing times, vector"
attr unit s
vector 138 scenario.client[2].ppp[0].ppp txPk:vector(packetBytes) ETV
attr interpolationmode none
attr source packetSentToLower
attr title "packets transmitted, vector(packetBytes)"
vector 139 scenario.client[0].ppp[1].ppp rxPkOk:vector(packetBytes) ETV
attr interpolationmode none
attr source rxPkOk
attr title "packets received OK, vector(packetBytes)"
vector 140 scenario.client[0].ppp[1].ppp passedUpPk:vector(packetBytes) ETV
attr interpolationmode none
attr source packetSentToUpper
attr title "packets passed to higher layer, vector(packetBytes)"
vector 141 scenario.client[0].tcp.conn-53 rcvSeq:vector ETV
attr interpolationmode sample-hold
vector 142 scenario.client[0].tcp.conn-53 rcvAck:vector ETV
attr interpolationmode sample-hold
vector 143 scenario.client[0].tcp.conn-53 sndWnd:vector ETV
attr interpolationmode sample-hold
vector 144 scenario.client[0].tcp.conn-53 unacked:vector ETV
attr interpolationmode sample-hold
vector 145 scenario.client[2].tcp.conn-54 rcvSeq:vector ETV
attr interpolationmode sample-hold
vector 146 scenario.client[2].tcp.conn-54 rcvAck:vector ETV
attr interpolationmode sample-hold
vector 147 scenario.client[2].tcp.conn-54 unacked:vector ETV
attr interpolationmode sample-hold
vector 148 scenario.client[2].tcp.conn-54 cwnd:vector ETV
attr interpolationmode sample-hold
vector 149 scenario.client[2].tcp.conn-54 ssthresh:vector ETV
attr interpolationmode sample-hold
vector 150 scenario.client[2].tcp.conn-54 dupAcks:vector ETV
attr interpolationmode sample-hold
vector 151 scenario.client[2].tcp.conn-55 tcpRcvQueueBytes:vector ETV
attr interpolationmode sample-hold
vector 152 scenario.client[2].tcp.conn-55 rcvAdv:vector ETV
attr interpolationmode sample-hold
vector 153 scenario.client[2].tcp.conn-55 rcvWnd:vector ETV
attr interpolationmode sample-hold
vector 154 scenario.client[2].tcp.conn-55 sndAck:vector ETV
attr interpolationmode sample-hold
vector 155 scenario.client[0].tcp.conn-53 rtt:vector ETV
attr interpolationmode sample-hold
vector 156 scenario.client[0].tcp.conn-53 srtt:vector ETV
attr interpolationmode sample-hold
vector 157 scenario.client[0].tcp.conn-53 rttvar:vector ETV
attr interpolationmode sample-hold
vector 158 scenario.client[0].tcp.conn-53 rto:vector ETV
attr interpolationmode sample-hold
vector 159 scenario.client[0].tcp.conn-53 cwnd:vector ETV
attr interpolationmode sample-hold
vector 160 scenario.client[0].tcp.conn-53 ssthresh:vector ETV
attr interpolationmode sample-hold
vector 161 scenario.client[0].tcp.conn-53 dupAcks:vector ETV
attr interpolationmode sample-hold
vector 162 scenario.client[0].tcp.conn-56 rcvAdv:vector ETV
attr interpolationmode sample-hold
vector 163 scenario.client[0].tcp.conn-56 sndWnd:vector ETV
attr interpolationmode sample-hold
vector 164 scenario.client[0].tcp.conn-56 tcpRcvQueueBytes:vector ETV
attr interpolationmode sample-hold
vector 165 scenario.client[0].tcp.conn-56 rcvWnd:vector ETV
attr interpolationmode sample-hold
vector 166 scenario.client[0].tcp.conn-56 sndAck:vector ETV
attr interpolationmode sample-hold
vector 167 scenario.client[2].tcp.conn-55 rcvSeq:vector ETV
attr interpolationmode sample-hold
vector 168 scenario.client[2].tcp.conn-55 rcvAck:vector ETV
attr interpolationmode sample-hold
vector 169 scenario.client[2].tcp.conn-55 sndWnd:vector ETV
attr interpolationmode sample-hold
vector 170 scenario.client[2].tcp.conn-55 unacked:vector ETV
attr interpolationmode sample-hold
vector 171 scenario.client[0].tcp.conn-56 rcvSeq:vector ETV
attr interpolationmode sample-hold
vector 172 scenario.client[0].tcp.conn-56 rcvAck:vector ETV
attr interpolationmode sample-hold
vector 173 scenario.client[0].tcp.conn-56 unacked:vector ETV
attr interpolationmode sample-hold
vector 174 scenario.client[0].tcp.conn-56 cwnd:vector ETV
attr interpolationmode sample-hold
vector 175 scenario.client[0].tcp.conn-56 ssthresh:vector ETV
attr interpolationmode sample-hold
vector 176 scenario.client[0].tcp.conn-56 dupAcks:vector ETV
attr interpolationmode sample-hold
vector 177 scenario.client[2].tcp.conn-55 rtt:vector ETV
attr interpolationmode sample-hold
vector 178 scenario.client[2].tcp.conn-55 srtt:vector ETV
attr interpolationmode sample-hold
vector 179 scenario.client[2].tcp.conn-55 rttvar:vector ETV
attr interpolationmode sample-hold
vector 180 scenario.client[2].tcp.conn-55 rto:vector ETV
attr interpolationmode sample-hold
vector 181 scenario.client[2].tcp.conn-55 cwnd:vector ETV
attr interpolationmode sample-hold
vector 182 scenario.client[2].tcp.conn-55 ssthresh:vector ETV
attr interpolationmode sample-hold
vector 183 scenario.client[2].tcp.conn-55 dupAcks:vector ETV
attr interpolationmode sample-hold
vector 184 scenario.client[5].tcp.conn-57 tcpRcvQueueBytes:vector ETV
attr interpolationmode sample-hold
vector 185 scenario.client[5].tcp.conn-57 rcvAdv:vector ETV
attr interpolationmode sample-hold
vector 186 scenario.client[5].tcp.conn-57 rcvWnd:vector ETV
attr interpolationmode sample-hold
vector 187 scenario.client[5].tcp.conn-57 sndAck:vector ETV
attr interpolationmode sample-hold
vector 188 scenario.client[5].ppp[0].ppp rcvdPkFromHl:vector(packetBytes) ETV
attr interpolationmode none
attr source packetReceivedFromUpper
attr title "packets received from higher layer, vector(packetBytes)"
vector 189 scenario.client[5].ppp[0].ppp.queue packetPushed:vector(packetBytes) ETV
attr interpolationmode none
attr title "packet pushed, vector(packetBytes)"
vector 190 scenario.client[5].ppp[0].ppp.queue queueLength:vector ETV
attr interpolationmode sample-hold
attr source "count(packetPushed) - count(packetPopped) - count(packetRemoved) - count(packetDropped)"
attr title "queue length, vector"
vector 191 scenario.client[5].ppp[0].ppp.queue packetPopped:vector(packetBytes) ETV
attr interpolationmode none
attr title "packet popped, vector(packetBytes)"
vector 192 scenario.client[5].ppp[0].ppp.queue queueingTime:vector ETV
attr interpolationmode none
attr source queueingTime(packetPopped)
attr title "queueing times, vector"
attr unit s
vector 193 scenario.client[5].ppp[0].ppp txPk:vector(packetBytes) ETV
attr interpolationmode none
attr source packetSentToLower
attr title "packets transmitted, vector(packetBytes)"
vector 194 scenario.client[0].ppp[4].ppp rxPkOk:vector(packetBytes) ETV
attr interpolationmode none
attr source rxPkOk
attr title "packets received OK, vector(packetBytes)"
vector 195 scenario.client[0].ppp[4].ppp passedUpPk:vector(packetBytes) ETV
attr interpolationmode none
attr source packetSentToUpper
attr title "packets passed to higher layer, vector(packetBytes)"
vector 196 scenario.client[0].tcp.conn-58 rcvAdv:vector ETV
attr interpolationmode sample-hold
vector 197 scenario.client[0].tcp.conn-58 sndWnd:vector ETV
attr interpolationmode sample-hold
vector 198 scenario.client[0].tcp.conn-58 tcpRcvQueueBytes:vector ETV
attr interpolationmode sample-hold
vector 199 scenario.client[0].tcp.conn-58 rcvWnd:vector ETV
attr interpolationmode sample-hold
vector 200 scenario.client[0].tcp.conn-58 sndAck:vector ETV
attr interpolationmode sample-hold
vector 201 scenario.client[0].ppp[4].ppp rcvdPkFromHl:vector(packetBytes) ETV
attr interpolationmode none
attr source packetReceivedFromUpper
attr title "packets received from higher layer, vector(packetBytes)"
vector 202 scenario.client[0].ppp[4].ppp.queue packetPushed:vector(packetBytes) ETV
attr interpolationmode none
attr title "packet pushed, vector(packetBytes)"
vector 203 scenario.client[0].ppp[4].ppp.queue queueLength:vector ETV
attr interpolationmode sample-hold
attr source "count(packetPushed) - count(packetPopped) - count(packetRemoved) - count(packetDropped)"
attr title "queue length, vector"
vector 204 scenario.client[0].ppp[4].ppp.queue packetPopped:vector(packetBytes) ETV
attr interpolationmode none
attr title "packet popped, vector(packetBytes)"
vector 205 scenario.client[0].ppp[4].ppp.queue queueingTime:vector ETV
attr interpolationmode none
attr source queueingTime(packetPopped)
attr title "queueing times, vector"
attr unit s
vector 206 scenario.client[0].ppp[4].ppp txPk:vector(packetBytes) ETV
attr interpolationmode none
attr source packetSentToLower
attr title "packets transmitted, vector(packetBytes)"
vector 207 scenario.client[5].ppp[0].ppp rxPkOk:vector(packetBytes) ETV
attr interpolationmode none
attr source rxPkOk
attr title "packets received OK, vector(packetBytes)"
vector 208 scenario.client[5].ppp[0].ppp passedUpPk:vector(packetBytes) ETV
attr interpolationmode none
attr source packetSentToUpper
attr title "packets passed to higher layer, vector(packetBytes)"
vector 209 scenario.client[5].tcp.conn-57 rcvSeq:vector ETV
attr interpolationmode sample-hold
vector 210 scenario.client[5].tcp.conn-57 rcvAck:vector ETV
attr interpolationmode sample-hold
vector 211 scenario.client[5].tcp.conn-57 sndWnd:vector ETV
attr interpolationmode sample-hold
vector 212 scenario.client[5].tcp.conn-57 unacked:vector ETV
attr interpolationmode sample-hold
vector 213 scenario.client[0].tcp.conn-58 rcvSeq:vector ETV
attr interpolationmode sample-hold
vector 214 scenario.client[0].tcp.conn-58 rcvAck:vector ETV
attr interpolationmode sample-hold
vector 215 scenario.client[0].tcp.conn-58 unacked:vector ETV
attr interpolationmode sample-hold
vector 216 scenario.client[0].tcp.conn-58 cwnd:vector ETV
attr interpolationmode sample-hold
vector 217 scenario.client[0].tcp.conn-58 ssthresh:vector ETV
attr interpolationmode sample-hold
vector 218 scenario.client[0].tcp.conn-58 dupAcks:vector ETV
attr interpolationmode sample-hold
vector 219 scenario.client[5].tcp.conn-57 rtt:vector ETV
attr interpolationmode sample-hold
vector 220 scenario.client[5].tcp.conn-57 srtt:vector ETV
attr interpolationmode sample-hold
vector 221 scenario.client[5].tcp.conn-57 rttvar:vector ETV
attr interpolationmode sample-hold
vector 222 scenario.client[5].tcp.conn-57 rto:vector ETV
attr interpolationmode sample-hold
vector 223 scenario.client[5].tcp.conn-57 cwnd:vector ETV
attr interpolationmode sample-hold
vector 224 scenario.client[5].tcp.conn-57 ssthresh:vector ETV
attr interpolationmode sample-hold
vector 225 scenario.client[5].tcp.conn-57 dupAcks:vector ETV
attr interpolationmode sample-hold
vector 226 scenario.client[0].tcp.conn-59 tcpRcvQueueBytes:vector ETV
attr interpolationmode sample-hold
vector 227 scenario.client[0].tcp.conn-59 rcvAdv:vector ETV
attr interpolationmode sample-hold
vector 228 scenario.client[0].tcp.conn-59 rcvWnd:vector ETV
attr interpolationmode sample-hold
vector 229 scenario.client[0].tcp.conn-59 sndAck:vector ETV
attr interpolationmode sample-hold
vector 230 scenario.client[0].ppp[2].ppp rcvdPkFromHl:vector(packetBytes) ETV
attr interpolationmode none
attr source packetReceivedFromUpper
attr title "packets received from higher layer, vector(packetBytes)"
vector 231 scenario.client[0].ppp[2].ppp.queue packetPushed:vector(packetBytes) ETV
attr interpolationmode none
attr title "packet pushed, vector(packetBytes)"
vector 232 scenario.client[0].ppp[2].ppp.queue queueLength:vector ETV
attr interpolationmode sample-hold
attr source "count(packetPushed) - count(packetPopped) - count(packetRemoved) - count(packetDropped)"
attr title "queue length, vector"
vector 233 scenario.client[0].ppp[2].ppp.queue packetPopped:vector(packetBytes) ETV
attr interpolationmode none
attr title "packet popped, vector(packetBytes)"
vector 234 scenario.client[0].ppp[2].ppp.queue queueingTime:vector ETV
attr interpolationmode none
attr source queueingTime(packetPopped)
attr title "queueing times, vector"
attr unit s
vector 235 scenario.client[0].ppp[2].ppp txPk:vector(packetBytes) ETV
attr interpolationmode none
attr source packetSentToLower
attr title "packets transmitted, vector(packetBytes)"
vector 236 scenario.client[3].ppp[0].ppp rxPkOk:vector(packetBytes) ETV
attr interpolationmode none
attr source rxPkOk
attr title "packets received OK, vector(packetBytes)"
vector 237 scenario.client[3].ppp[0].ppp passedUpPk:vector(packetBytes) ETV
attr interpolationmode none
attr source packetSentToUpper
attr title "packets passed to higher layer, vector(packetBytes)"
vector 238 scenario.client[3].tcp.conn-3 rcvSeq:vector ETV
attr interpolationmode sample-hold
vector 239 scenario.client[3].tcp.conn-3 rcvAck:vector ETV
attr interpolationmode sample-hold
vector 240 scenario.client[3].tcp.conn-60 rcvAdv:vector ETV
attr interpolationmode sample-hold
vector 241 scenario.client[3].tcp.conn-60 sndWnd:vector ETV
attr interpolationmode sample-hold
vector 242 scenario.client[3].tcp.conn-60 tcpRcvQueueBytes:vector ETV
attr interpolationmode sample-hold
vector 243 scenario.client[3].tcp.conn-60 rcvWnd:vector ETV
attr interpolationmode sample-hold
vector 244 scenario.client[3].tcp.conn-60 sndAck:vector ETV
attr interpolationmode sample-hold
vector 245 scenario.client[3].ppp[0].ppp rcvdPkFromHl:vector(packetBytes) ETV
attr interpolationmode none
attr source packetReceivedFromUpper
attr title "packets received from higher layer, vector(packetBytes)"
vector 246 scenario.client[3].ppp[0].ppp.queue packetPushed:vector(packetBytes) ETV
attr interpolationmode none
attr title "packet pushed, vector(packetBytes)"
vector 247 scenario.client[3].ppp[0].ppp.queue queueLength:vector ETV
attr interpolationmode sample-hold
attr source "count(packetPushed) - count(packetPopped) - count(packetRemoved) - count(packetDropped)"
attr title "queue length, vector"
vector 248 scenario.client[3].ppp[0].ppp.queue packetPopped:vector(packetBytes) ETV
attr interpolationmode none
attr title "packet popped, vector(packetBytes)"
vector 249 scenario.client[3].ppp[0].ppp.queue queueingTime:vector ETV
attr interpolationmode none
attr source queueingTime(packetPopped)
attr title "queueing times, vector"
attr unit s
vector 250 scenario.client[3].ppp[0].ppp txPk:vector(packetBytes) ETV
attr interpolationmode none
attr source packetSentToLower
attr title "packets transmitted, vector(packetBytes)"
vector 251 scenario.client[0].ppp[2].ppp rxPkOk:vector(packetBytes) ETV
attr interpolationmode none
attr source rxPkOk
attr title "packets received OK, vector(packetBytes)"
vector 252 scenario.client[0].ppp[2].ppp passedUpPk:vector(packetBytes) ETV
attr interpolationmode none
attr source packetSentToUpper
attr title "packets passed to higher layer, vector(packetBytes)"
vector 253 scenario.client[0].tcp.conn-59 rcvSeq:vector ETV
attr interpolationmode sample-hold
vector 254 scenario.client[0].tcp.conn-59 rcvAck:vector ETV
attr interpolationmode sample-hold
vector 255 scenario.client[0].tcp.conn-59 sndWnd:vector ETV
attr interpolationmode sample-hold
vector 256 scenario.client[0].tcp.conn-59 unacked:vector ETV
attr interpolationmode sample-hold
vector 257 scenario.client[3].tcp.conn-60 rcvSeq:vector ETV
attr interpolationmode sample-hold
vector 258 scenario.client[3].tcp.conn-60 rcvAck:vector ETV
attr interpolationmode sample-hold
vector 259 scenario.client[3].tcp.conn-60 unacked:vector ETV
attr interpolationmode sample-hold
vector 260 scenario.client[3].tcp.conn-60 cwnd:vector ETV
attr interpolationmode sample-hold
vector 261 scenario.client[3].tcp.conn-60 ssthresh:vector ETV
attr interpolationmode sample-hold
vector 262 scenario.client[3].tcp.conn-60 dupAcks:vector ETV
attr interpolationmode sample-hold
vector 263 scenario.client[3].tcp.conn-61 tcpRcvQueueBytes:vector ETV
attr interpolationmode sample-hold
vector 264 scenario.client[3].tcp.conn-61 rcvAdv:vector ETV
attr interpolationmode sample-hold
vector 265 scenario.client[3].tcp.conn-61 rcvWnd:vector ETV
attr interpolationmode sample-hold
vector 266 scenario.client[3].tcp.conn-61 sndAck:vector ETV
attr interpolationmode sample-hold
vector 267 scenario.client[0].tcp.conn-59 rtt:vector ETV
attr interpolationmode sample-hold
vector 268 scenario.client[0].tcp.conn-59 srtt:vector ETV
attr interpolationmode sample-hold
vector 269 scenario.client[0].tcp.conn-59 rttvar:vector ETV
attr interpolationmode sample-hold
vector 270 scenario.client[0].tcp.conn-59 rto:vector ETV
attr interpolationmode sample-hold
vector 271 scenario.client[0].tcp.conn-59 cwnd:vector ETV
attr interpolationmode sample-hold
vector 272 scenario.client[0].tcp.conn-59 ssthresh:vector ETV
attr interpolationmode sample-hold
vector 273 scenario.client[0].tcp.conn-59 dupAcks:vector ETV
attr interpolationmode sample-hold
vector 274 scenario.client[0].tcp.conn-62 rcvAdv:vector ETV
attr interpolationmode sample-hold
vector 275 scenario.client[0].tcp.conn-62 sndWnd:vector ETV
attr interpolationmode sample-hold
vector 276 scenario.client[0].tcp.conn-62 tcpRcvQueueBytes:vector ETV
attr interpolationmode sample-hold
vector 277 scenario.client[0].tcp.conn-62 rcvWnd:vector ETV
attr interpolationmode sample-hold
vector 278 scenario.client[0].tcp.conn-62 sndAck:vector ETV
attr interpolationmode sample-hold
vector 279 scenario.client[3].tcp.conn-61 rcvSeq:vector ETV
attr interpolationmode sample-hold
vector 280 scenario.client[3].tcp.conn-61 rcvAck:vector ETV
attr interpolationmode sample-hold
vector 281 scenario.client[3].tcp.conn-61 sndWnd:vector ETV
attr interpolationmode sample-hold
vector 282 scenario.client[3].tcp.conn-61 unacked:vector ETV
attr interpolationmode sample-hold
vector 283 scenario.client[0].tcp.conn-62 rcvSeq:vector ETV
attr interpolationmode sample-hold
vector 284 scenario.client[0].tcp.conn-62 rcvAck:vector ETV
attr interpolationmode sample-hold
vector 285 scenario.client[0].tcp.conn-62 unacked:vector ETV
attr interpolationmode sample-hold
vector 286 scenario.client[0].tcp.conn-62 cwnd:vector ETV
attr interpolationmode sample-hold
vector 287 scenario.client[0].tcp.conn-62 ssthresh:vector ETV
attr interpolationmode sample-hold
vector 288 scenario.client[0].tcp.conn-62 dupAcks:vector ETV
attr interpolationmode sample-hold
vector 289 scenario.client[3].tcp.conn-61 rtt:vector ETV
attr interpolationmode sample-hold
vector 290 scenario.client[3].tcp.conn-61 srtt:vector ETV
attr interpolationmode sample-hold
vector 291 scenario.client[3].tcp.conn-61 rttvar:vector ETV
attr interpolationmode sample-hold
vector 292 scenario.client[3].tcp.conn-61 rto:vector ETV
attr interpolationmode sample-hold
vector 293 scenario.client[3].tcp.conn-61 cwnd:vector ETV
attr interpolationmode sample-hold
vector 294 scenario.client[3].tcp.conn-61 ssthresh:vector ETV
attr interpolationmode sample-hold
vector 295 scenario.client[3].tcp.conn-61 dupAcks:vector ETV
attr interpolationmode sample-hold
vector 296 scenario.client[5].tcp.conn-63 tcpRcvQueueBytes:vector ETV
attr interpolationmode sample-hold
vector 297 scenario.client[5].tcp.conn-63 rcvAdv:vector ETV
attr interpolationmode sample-hold
vector 298 scenario.client[5].tcp.conn-63 rcvWnd:vector ETV
attr interpolationmode sample-hold
vector 299 scenario.client[5].tcp.conn-63 sndAck:vector ETV
attr interpolationmode sample-hold
vector 300 scenario.client[5].ppp[1].ppp rcvdPkFromHl:vector(packetBytes) ETV
attr interpolationmode none
attr source packetReceivedFromUpper
attr title "packets received from higher layer, vector(packetBytes)"
vector 301 scenario.client[5].ppp[1].ppp.queue packetPushed:vector(packetBytes) ETV
attr interpolationmode none
attr title "packet pushed, vector(packetBytes)"
vector 302 scenario.client[5].ppp[1].ppp.queue queueLength:vector ETV
attr interpolationmode sample-hold
attr source "count(packetPushed) - count(packetPopped) - count(packetRemoved) - count(packetDropped)"
attr title "queue length, vector"
vector 303 scenario.client[5].ppp[1].ppp.queue packetPopped:vector(packetBytes) ETV
attr interpolationmode none
attr title "packet popped, vector(packetBytes)"
vector 304 scenario.client[5].ppp[1].ppp.queue queueingTime:vector ETV
attr interpolationmode none
attr source queueingTime(packetPopped)
attr title "queueing times, vector"
attr unit s
vector 305 scenario.client[5].ppp[1].ppp txPk:vector(packetBytes) ETV
attr interpolationmode none
attr source packetSentToLower
attr title "packets transmitted, vector(packetBytes)"
vector 306 scenario.client[1].ppp[4].ppp rxPkOk:vector(packetBytes) ETV
attr interpolationmode none
attr source rxPkOk
attr title "packets received OK, vector(packetBytes)"
vector 307 scenario.client[1].ppp[4].ppp passedUpPk:vector(packetBytes) ETV
attr interpolationmode none
attr source packetSentToUpper
attr title "packets passed to higher layer, vector(packetBytes)"
vector 308 scenario.client[1].tcp.conn-64 rcvAdv:vector ETV
attr interpolationmode sample-hold
vector 309 scenario.client[1].tcp.conn-64 sndWnd:vector ETV
attr interpolationmode sample-hold
vector 310 scenario.client[1].tcp.conn-64 tcpRcvQueueBytes:vector ETV
attr interpolationmode sample-hold
vector 311 scenario.client[1].tcp.conn-64 rcvWnd:vector ETV
attr interpolationmode sample-hold
vector 312 scenario.client[1].tcp.conn-64 sndAck:vector ETV
attr interpolationmode sample-hold
vector 313 scenario.client[1].ppp[4].ppp rcvdPkFromHl:vector(packetBytes) ETV
attr interpolationmode none
attr source packetReceivedFromUpper
attr title "packets received from higher layer, vector(packetBytes)"
vector 314 scenario.client[1].ppp[4].ppp.queue packetPushed:vector(packetBytes) ETV
attr interpolationmode none
attr title "packet pushed, vector(packetBytes)"
vector 315 scenario.client[1].ppp[4].ppp.queue queueLength:vector ETV
attr interpolationmode sample-hold
attr source "count(packetPushed) - count(packetPopped) - count(packetRemoved) - count(packetDropped)"
attr title "queue length, vector"
vector 316 scenario.client[1].ppp[4].ppp.queue packetPopped:vector(packetBytes) ETV
attr interpolationmode none
attr title "packet popped, vector(packetBytes)"
vector 317 scenario.client[1].ppp[4].ppp.queue queueingTime:vector ETV
attr interpolationmode none
attr source queueingTime(packetPopped)
attr title "queueing times, vector"
attr unit s
vector 318 scenario.client[1].ppp[4].ppp txPk:vector(packetBytes) ETV
attr interpolationmode none
attr source packetSentToLower
attr title "packets transmitted, vector(packetBytes)"
vector 319 scenario.client[5].ppp[1].ppp rxPkOk:vector(packetBytes) ETV
attr interpolationmode none
attr source rxPkOk
attr title "packets received OK, vector(packetBytes)"
vector 320 scenario.client[5].ppp[1].ppp passedUpPk:vector(packetBytes) ETV
attr interpolationmode none
attr source packetSentToUpper
attr title "packets passed to higher layer, vector(packetBytes)"
vector 321 scenario.client[5].tcp.conn-63 rcvSeq:vector ETV
attr interpolationmode sample-hold
vector 322 scenario.client[5].tcp.conn-63 rcvAck:vector ETV
attr interpolationmode sample-hold
vector 323 scenario.client[5].tcp.conn-63 sndWnd:vector ETV
attr interpolationmode sample-hold
vector 324 scenario.client[5].tcp.conn-63 unacked:vector ETV
attr interpolationmode sample-hold
vector 325 scenario.client[1].tcp.conn-64 rcvSeq:vector ETV
attr interpolationmode sample-hold
vector 326 scenario.client[1].tcp.conn-64 rcvAck:vector ETV
attr interpolationmode sample-hold
vector 327 scenario.client[1].tcp.conn-64 unacked:vector ETV
attr interpolationmode sample-hold
vector 328 scenario.client[1].tcp.conn-64 cwnd:vector ETV
attr interpolationmode sample-hold
vector 329 scenario.client[1].tcp.conn-64 ssthresh:vector ETV
attr interpolationmode sample-hold
vector 330 scenario.client[1].tcp.conn-64 dupAcks:vector ETV
attr interpolationmode sample-hold
vector 331 scenario.client[5].tcp.conn-63 rtt:vector ETV
attr interpolationmode sample-hold
vector 332 scenario.client[5].tcp.conn-63 srtt:vector ETV
attr interpolationmode sample-hold
vector 333 scenario.client[5].tcp.conn-63 rttvar:vector ETV
attr interpolationmode sample-hold
vector 334 scenario.client[5].tcp.conn-63 rto:vector ETV
attr interpolationmode sample-hold
vector 335 scenario.client[5].tcp.conn-63 cwnd:vector ETV
attr interpolationmode sample-hold
vector 336 scenario.client[5].tcp.conn-63 ssthresh:vector ETV
attr interpolationmode sample-hold
vector 337 scenario.client[5].tcp.conn-63 dupAcks:vector ETV
attr interpolationmode sample-hold
vector 338 scenario.client[5].tcp.conn-65 tcpRcvQueueBytes:vector ETV
attr interpolationmode sample-hold
vector 339 scenario.client[5].tcp.conn-65 rcvAdv:vector ETV
attr interpolationmode sample-hold
vector 340 scenario.client[5].tcp.conn-65 rcvWnd:vector ETV
attr interpolationmode sample-hold
vector 341 scenario.client[5].tcp.conn-65 sndAck:vector ETV
attr interpolationmode sample-hold
vector 342 scenario.client[5].ppp[2].ppp rcvdPkFromHl:vector(packetBytes) ETV
attr interpolationmode none
attr source packetReceivedFromUpper
attr title "packets received from higher layer, vector(packetBytes)"
vector 343 scenario.client[5].ppp[2].ppp.queue packetPushed:vector(packetBytes) ETV
attr interpolationmode none
attr title "packet pushed, vector(packetBytes)"
vector 344 scenario.client[5].ppp[2].ppp.queue queueLength:vector ETV
attr interpolationmode sample-hold
attr source "count(packetPushed) - count(packetPopped) - count(packetRemoved) - count(packetDropped)"
attr title "queue length, vector"
vector 345 scenario.client[5].ppp[2].ppp.queue packetPopped:vector(packetBytes) ETV
attr interpolationmode none
attr title "packet popped, vector(packetBytes)"
vector 346 scenario.client[5].ppp[2].ppp.queue queueingTime:vector ETV
attr interpolationmode none
attr source queueingTime(packetPopped)
attr title "queueing times, vector"
attr unit s
vector 347 scenario.client[5].ppp[2].ppp txPk:vector(packetBytes) ETV
attr interpolationmode none
attr source packetSentToLower
attr title "packets transmitted, vector(packetBytes)"
vector 348 scenario.client[2].ppp[4].ppp rxPkOk:vector(packetBytes) ETV
attr interpolationmode none
attr source rxPkOk
attr title "packets received OK, vector(packetBytes)"
vector 349 scenario.client[2].ppp[4].ppp passedUpPk:vector(packetBytes) ETV
attr interpolationmode none
attr source packetSentToUpper
attr title "packets passed to higher layer, vector(packetBytes)"
vector 350 scenario.client[2].tcp.conn-66 rcvAdv:vector ETV
attr interpolationmode sample-hold
vector 351 scenario.client[2].tcp.conn-66 sndWnd:vector ETV
attr interpolationmode sample-hold
vector 352 scenario.client[2].tcp.conn-66 tcpRcvQueueBytes:vector ETV
attr interpolationmode sample-hold
vector 353 scenario.client[2].tcp.conn-66 rcvWnd:vector ETV
attr interpolationmode sample-hold
vector 354 scenario.client[2].tcp.conn-66 sndAck:vector ETV
attr interpolationmode sample-hold
vector 355 scenario.client[2].ppp[4].ppp rcvdPkFromHl:vector(packetBytes) ETV
attr interpolationmode none
attr source packetReceivedFromUpper
attr title "packets received from higher layer, vector(packetBytes)"
vector 356 scenario.client[2].ppp[4].ppp.queue packetPushed:vector(packetBytes) ETV
attr interpolationmode none
attr title "packet pushed, vector(packetBytes)"
vector 357 scenario.client[2].ppp[4].ppp.queue queueLength:vector ETV
attr interpolationmode sample-hold
attr source "count(packetPushed) - count(packetPopped) - count(packetRemoved) - count(packetDropped)"
attr title "queue length, vector"
vector 358 scenario.client[2].ppp[4].ppp.queue packetPopped:vector(packetBytes) ETV
attr interpolationmode none
attr title "packet popped, vector(packetBytes)"
vector 359 scenario.client[2].ppp[4].ppp.queue queueingTime:vector ETV
attr interpolationmode none
attr source queueingTime(packetPopped)
attr title "queueing times, vector"
attr unit s
vector 360 scenario.client[2].ppp[4].ppp txPk:vector(packetBytes) ETV
attr interpolationmode none
attr source packetSentToLower
attr title "packets transmitted, vector(packetBytes)"
vector 361 scenario.client[5].ppp[2].ppp rxPkOk:vector(packetBytes) ETV
attr interpolationmode none
attr source rxPkOk
attr title "packets received OK, vector(packetBytes)"
vector 362 scenario.client[5].ppp[2].ppp passedUpPk:vector(packetBytes) ETV
attr interpolationmode none
attr source packetSentToUpper
attr title "packets passed to higher layer, vector(packetBytes)"
vector 363 scenario.client[5].tcp.conn-65 rcvSeq:vector ETV
attr interpolationmode sample-hold
vector 364 scenario.client[5].tcp.conn-65 rcvAck:vector ETV
attr interpolationmode sample-hold
vector 365 scenario.client[5].tcp.conn-65 sndWnd:vector ETV
attr interpolationmode sample-hold
vector 366 scenario.client[5].tcp.conn-65 unacked:vector ETV
attr interpolationmode sample-hold
vector 367 scenario.client[0].tcp.conn-67 tcpRcvQueueBytes:vector ETV
attr interpolationmode sample-hold
vector 368 scenario.client[0].tcp.conn-67 rcvAdv:vector ETV
attr interpolationmode sample-hold
vector 369 scenario.client[0].tcp.conn-67 rcvWnd:vector ETV
attr interpolationmode sample-hold
vector 370 scenario.client[0].tcp.conn-67 sndAck:vector ETV
attr interpolationmode sample-hold
vector 371 scenario.client[0].ppp[3].ppp rcvdPkFromHl:vector(packetBytes) ETV
attr interpolationmode none
attr source packetReceivedFromUpper
attr title "packets received from higher layer, vector(packetBytes)"
vector 372 scenario.client[0].ppp[3].ppp.queue packetPushed:vector(packetBytes) ETV
attr interpolationmode none
attr title "packet pushed, vector(packetBytes)"
vector 373 scenario.client[0].ppp[3].ppp.queue queueLength:vector ETV
attr interpolationmode sample-hold
attr source "count(packetPushed) - count(packetPopped) - count(packetRemoved) - count(packetDropped)"
attr title "queue length, vector"
vector 374 scenario.client[0].ppp[3].ppp.queue packetPopped:vector(packetBytes) ETV
attr interpolationmode none
attr title "packet popped, vector(packetBytes)"
vector 375 scenario.client[0].ppp[3].ppp.queue queueingTime:vector ETV
attr interpolationmode none
attr source queueingTime(packetPopped)
attr title "queueing times, vector"
attr unit s
vector 376 scenario.client[0].ppp[3].ppp txPk:vector(packetBytes) ETV
attr interpolationmode none
attr source packetSentToLower
attr title "packets transmitted, vector(packetBytes)"
vector 377 scenario.client[2].tcp.conn-66 rcvSeq:vector ETV
attr interpolationmode sample-hold
vector 378 scenario.client[2].tcp.conn-66 rcvAck:vector ETV
attr interpolationmode sample-hold
vector 379 scenario.client[2].tcp.conn-66 unacked:vector ETV
attr interpolationmode sample-hold
vector 380 scenario.client[2].tcp.conn-66 cwnd:vector ETV
attr interpolationmode sample-hold
vector 381 scenario.client[2].tcp.conn-66 ssthresh:vector ETV
attr interpolationmode sample-hold
vector 382 scenario.client[2].tcp.conn-66 dupAcks:vector ETV
attr interpolationmode sample-hold
vector 383 scenario.client[4].ppp[0].ppp rxPkOk:vector(packetBytes) ETV
attr interpolationmode none
attr source rxPkOk
attr title "packets received OK, vector(packetBytes)"
vector 384 scenario.client[4].ppp[0].ppp passedUpPk:vector(packetBytes) ETV
attr interpolationmode none
attr source packetSentToUpper
attr title "packets passed to higher layer, vector(packetBytes)"
vector 385 scenario.client[4].tcp.conn-4 rcvSeq:vector ETV
attr interpolationmode sample-hold
vector 386 scenario.client[4].tcp.conn-4 rcvAck:vector ETV
attr interpolationmode sample-hold
vector 387 scenario.client[4].tcp.conn-68 rcvAdv:vector ETV
attr interpolationmode sample-hold
vector 388 scenario.client[4].tcp.conn-68 sndWnd:vector ETV
attr interpolationmode sample-hold
vector 389 scenario.client[4].tcp.conn-68 tcpRcvQueueBytes:vector ETV
attr interpolationmode sample-hold
vector 390 scenario.client[4].tcp.conn-68 rcvWnd:vector ETV
attr interpolationmode sample-hold
vector 391 scenario.client[4].tcp.conn-68 sndAck:vector ETV
attr interpolationmode sample-hold
vector 392 scenario.client[4].ppp[0].ppp rcvdPkFromHl:vector(packetBytes) ETV
attr interpolationmode none
attr source packetReceivedFromUpper
attr title "packets received from higher layer, vector(packetBytes)"
vector 393 scenario.client[4].ppp[0].ppp.queue packetPushed:vector(packetBytes) ETV
attr interpolationmode none
attr title "packet pushed, vector(packetBytes)"
vector 394 scenario.client[4].ppp[0].ppp.queue queueLength:vector ETV
attr interpolationmode sample-hold
attr source "count(packetPushed) - count(packetPopped) - count(packetRemoved) - count(packetDropped)"
attr title "queue length, vector"
vector 395 scenario.client[4].ppp[0].ppp.queue packetPopped:vector(packetBytes) ETV
attr interpolationmode none
attr title "packet popped, vector(packetBytes)"
vector 396 scenario.client[4].ppp[0].ppp.queue queueingTime:vector ETV
attr interpolationmode none
attr source queueingTime(packetPopped)
attr title "queueing times, vector"
attr unit s
vector 397 scenario.client[4].ppp[0].ppp txPk:vector(packetBytes) ETV
attr interpolationmode none
attr source packetSentToLower
attr title "packets transmitted, vector(packetBytes)"
vector 398 scenario.client[5].tcp.conn-65 rtt:vector ETV
attr interpolationmode sample-hold
vector 399 scenario.client[5].tcp.conn-65 srtt:vector ETV
attr interpolationmode sample-hold
vector 400 scenario.client[5].tcp.conn-65 rttvar:vector ETV
attr interpolationmode sample-hold
vector 401 scenario.client[5].tcp.conn-65 rto:vector ETV
attr interpolationmode sample-hold
vector 402 scenario.client[5].tcp.conn-65 cwnd:vector ETV
attr interpolationmode sample-hold
vector 403 scenario.client[5].tcp.conn-65 ssthresh:vector ETV
attr interpolationmode sample-hold
vector 404 scenario.client[5].tcp.conn-65 dupAcks:vector ETV
attr interpolationmode sample-hold
vector 405 scenario.client[0].ppp[3].ppp rxPkOk:vector(packetBytes) ETV
attr interpolationmode none
attr source rxPkOk
attr title "packets received OK, vector(packetBytes)"
vector 406 scenario.client[0].ppp[3].ppp passedUpPk:vector(packetBytes) ETV
attr interpolationmode none
attr source packetSentToUpper
attr title "packets passed to higher layer, vector(packetBytes)"
vector 407 scenario.client[0].tcp.conn-67 rcvSeq:vector ETV
attr interpolationmode sample-hold
vector 408 scenario.client[0].tcp.conn-67 rcvAck:vector ETV
attr interpolationmode sample-hold
vector 409 scenario.client[0].tcp.conn-67 sndWnd:vector ETV
attr interpolationmode sample-hold
vector 410 scenario.client[0].tcp.conn-67 unacked:vector ETV
attr interpolationmode sample-hold
vector 411 scenario.client[4].tcp.conn-68 rcvSeq:vector ETV
attr interpolationmode sample-hold
vector 412 scenario.client[4].tcp.conn-68 rcvAck:vector ETV
attr interpolationmode sample-hold
vector 413 scenario.client[4].tcp.conn-68 unacked:vector ETV
attr interpolationmode sample-hold
vector 414 scenario.client[4].tcp.conn-68 cwnd:vector ETV
attr interpolationmode sample-hold
vector 415 scenario.client[4].tcp.conn-68 ssthresh:vector ETV
attr interpolationmode sample-hold
vector 416 scenario.client[4].tcp.conn-68 dupAcks:vector ETV
attr interpolationmode sample-hold
vector 417 scenario.client[4].tcp.conn-69 tcpRcvQueueBytes:vector ETV
attr interpolationmode sample-hold
vector 418 scenario.client[4].tcp.conn-69 rcvAdv:vector ETV
attr interpolationmode sample-hold
vector 419 scenario.client[4].tcp.conn-69 rcvWnd:vector ETV
attr interpolationmode sample-hold
vector 420 scenario.client[4].tcp.conn-69 sndAck:vector ETV
attr interpolationmode sample-hold
vector 421 scenario.client[0].tcp.conn-67 rtt:vector ETV
attr interpolationmode sample-hold
vector 422 scenario.client[0].tcp.conn-67 srtt:vector ETV
attr interpolationmode sample-hold
vector 423 scenario.client[0].tcp.conn-67 rttvar:vector ETV
attr interpolationmode sample-hold
vector 424 scenario.client[0].tcp.conn-67 rto:vector ETV
attr interpolationmode sample-hold
vector 425 scenario.client[0].tcp.conn-67 cwnd:vector ETV
attr interpolationmode sample-hold
vector 426 scenario.client[0].tcp.conn-67 ssthresh:vector ETV
attr interpolationmode sample-hold
vector 427 scenario.client[0].tcp.conn-67 dupAcks:vector ETV
attr interpolationmode sample-hold
vector 428 scenario.client[0].tcp.conn-70 rcvAdv:vector ETV
attr interpolationmode sample-hold
vector 429 scenario.client[0].tcp.conn-70 sndWnd:vector ETV
attr interpolationmode sample-hold
vector 430 scenario.client[0].tcp.conn-70 tcpRcvQueueBytes:vector ETV
attr interpolationmode sample-hold
vector 431 scenario.client[0].tcp.conn-70 rcvWnd:vector ETV
attr interpolationmode sample-hold
vector 432 scenario.client[0].tcp.conn-70 sndAck:vector ETV
attr interpolationmode sample-hold
vector 433 scenario.client[4].tcp.conn-69 rcvSeq:vector ETV
attr interpolationmode sample-hold
vector 434 scenario.client[4].tcp.conn-69 rcvAck:vector ETV
attr interpolationmode sample-hold
vector 435 scenario.client[4].tcp.conn-69 sndWnd:vector ETV
attr interpolationmode sample-hold
vector 436 scenario.client[4].tcp.conn-69 unacked:vector ETV
attr interpolationmode sample-hold
vector 437 scenario.client[0].tcp.conn-70 rcvSeq:vector ETV
attr interpolationmode sample-hold
vector 438 scenario.client[0].tcp.conn-70 rcvAck:vector ETV
attr interpolationmode sample-hold
vector 439 scenario.client[0].tcp.conn-70 unacked:vector ETV
attr interpolationmode sample-hold
vector 440 scenario.client[0].tcp.conn-70 cwnd:vector ETV
attr interpolationmode sample-hold
vector 441 scenario.client[0].tcp.conn-70 ssthresh:vector ETV
attr interpolationmode sample-hold
vector 442 scenario.client[0].tcp.conn-70 dupAcks:vector ETV
attr interpolationmode sample-hold
vector 443 scenario.client[4].tcp.conn-69 rtt:vector ETV
attr interpolationmode sample-hold
vector 444 scenario.client[4].tcp.conn-69 srtt:vector ETV
attr interpolationmode sample-hold
vector 445 scenario.client[4].tcp.conn-69 rttvar:vector ETV
attr interpolationmode sample-hold
vector 446 scenario.client[4].tcp.conn-69 rto:vector ETV
attr interpolationmode sample-hold
vector 447 scenario.client[4].tcp.conn-69 cwnd:vector ETV
attr interpolationmode sample-hold
vector 448 scenario.client[4].tcp.conn-69 ssthresh:vector ETV
attr interpolationmode sample-hold
vector 449 scenario.client[4].tcp.conn-69 dupAcks:vector ETV
attr interpolationmode sample-hold
vector 450 scenario.client[1].tcp.conn-71 tcpRcvQueueBytes:vector ETV
attr interpolationmode sample-hold
vector 451 scenario.client[1].tcp.conn-71 rcvAdv:vector ETV
attr interpolationmode sample-hold
vector 452 scenario.client[1].tcp.conn-71 rcvWnd:vector ETV
attr interpolationmode sample-hold
vector 453 scenario.client[1].tcp.conn-71 sndAck:vector ETV
attr interpolationmode sample-hold
vector 454 scenario.client[5].tcp.conn-5 rcvSeq:vector ETV
attr interpolationmode sample-hold
vector 455 scenario.client[5].tcp.conn-5 rcvAck:vector ETV
attr interpolationmode sample-hold
vector 456 scenario.client[5].tcp.conn-72 rcvAdv:vector ETV
attr interpolationmode sample-hold
vector 457 scenario.client[5].tcp.conn-72 sndWnd:vector ETV
attr interpolationmode sample-hold
vector 458 scenario.client[5].tcp.conn-72 tcpRcvQueueBytes:vector ETV
attr interpolationmode sample-hold
vector 459 scenario.client[5].tcp.conn-72 rcvWnd:vector ETV
attr interpolationmode sample-hold
vector 460 scenario.client[5].tcp.conn-72 sndAck:vector ETV
attr interpolationmode sample-hold
vector 461 scenario.client[1].tcp.conn-71 rcvSeq:vector ETV
attr interpolationmode sample-hold
vector 462 scenario.client[1].tcp.conn-71 rcvAck:vector ETV
attr interpolationmode sample-hold
vector 463 scenario.client[1].tcp.conn-71 sndWnd:vector ETV
attr interpolationmode sample-hold
vector 464 scenario.client[1].tcp.conn-71 unacked:vector ETV
attr interpolationmode sample-hold
vector 465 scenario.client[5].tcp.conn-72 rcvSeq:vector ETV
attr interpolationmode sample-hold
vector 466 scenario.client[5].tcp.conn-72 rcvAck:vector ETV
attr interpolationmode sample-hold
vector 467 scenario.client[5].tcp.conn-72 unacked:vector ETV
attr interpolationmode sample-hold
vector 468 scenario.client[5].tcp.conn-72 cwnd:vector ETV
attr interpolationmode sample-hold
vector 469 scenario.client[5].tcp.conn-72 ssthresh:vector ETV
attr interpolationmode sample-hold
vector 470 scenario.client[5].tcp.conn-72 dupAcks:vector ETV
attr interpolationmode sample-hold
vector 471 scenario.client[1].tcp.conn-71 rtt:vector ETV
attr interpolationmode sample-hold
vector 472 scenario.client[1].tcp.conn-71 srtt:vector ETV
attr interpolationmode sample-hold
vector 473 scenario.client[1].tcp.conn-71 rttvar:vector ETV
attr interpolationmode sample-hold
vector 474 scenario.client[1].tcp.conn-71 rto:vector ETV
attr interpolationmode sample-hold
vector 475 scenario.client[1].tcp.conn-71 cwnd:vector ETV
attr interpolationmode sample-hold
vector 476 scenario.client[1].tcp.conn-71 ssthresh:vector ETV
attr interpolationmode sample-hold
vector 477 scenario.client[1].tcp.conn-71 dupAcks:vector ETV
attr interpolationmode sample-hold
vector 478 scenario.client[0].tcp.conn-73 tcpRcvQueueBytes:vector ETV
attr interpolationmode sample-hold
vector 479 scenario.client[0].tcp.conn-73 rcvAdv:vector ETV
attr interpolationmode sample-hold
vector 480 scenario.client[0].tcp.conn-73 rcvWnd:vector ETV
attr interpolationmode sample-hold
vector 481 scenario.client[0].tcp.conn-73 sndAck:vector ETV
attr interpolationmode sample-hold
vector 482 scenario.client[5].tcp.conn-74 rcvAdv:vector ETV
attr interpolationmode sample-hold
vector 483 scenario.client[5].tcp.conn-74 sndWnd:vector ETV
attr interpolationmode sample-hold
vector 484 scenario.client[5].tcp.conn-74 tcpRcvQueueBytes:vector ETV
attr interpolationmode sample-hold
vector 485 scenario.client[5].tcp.conn-74 rcvWnd:vector ETV
attr interpolationmode sample-hold
vector 486 scenario.client[5].tcp.conn-74 sndAck:vector ETV
attr interpolationmode sample-hold
vector 487 scenario.client[0].tcp.conn-73 rcvSeq:vector ETV
attr interpolationmode sample-hold
vector 488 scenario.client[0].tcp.conn-73 rcvAck:vector ETV
attr interpolationmode sample-hold
vector 489 scenario.client[0].tcp.conn-73 sndWnd:vector ETV
attr interpolationmode sample-hold
vector 490 scenario.client[0].tcp.conn-73 unacked:vector ETV
attr interpolationmode sample-hold
vector 491 scenario.client[5].tcp.conn-74 rcvSeq:vector ETV
attr interpolationmode sample-hold
vector 492 scenario.client[5].tcp.conn-74 rcvAck:vector ETV
attr interpolationmode sample-hold
vector 493 scenario.client[5].tcp.conn-74 unacked:vector ETV
attr interpolationmode sample-hold
vector 494 scenario.client[5].tcp.conn-74 cwnd:vector ETV
attr interpolationmode sample-hold
vector 495 scenario.client[5].tcp.conn-74 ssthresh:vector ETV
attr interpolationmode sample-hold
vector 496 scenario.client[5].tcp.conn-74 dupAcks:vector ETV
attr interpolationmode sample-hold
vector 497 scenario.client[0].tcp.conn-73 rtt:vector ETV
attr interpolationmode sample-hold
vector 498 scenario.client[0].tcp.conn-73 srtt:vector ETV
attr interpolationmode sample-hold
vector 499 scenario.client[0].tcp.conn-73 rttvar:vector ETV
attr interpolationmode sample-hold
vector 500 scenario.client[0].tcp.conn-73 rto:vector ETV
attr interpolationmode sample-hold
vector 501 scenario.client[0].tcp.conn-73 cwnd:vector ETV
attr interpolationmode sample-hold
vector 502 scenario.client[0].tcp.conn-73 ssthresh:vector ETV
attr interpolationmode sample-hold
vector 503 scenario.client[0].tcp.conn-73 dupAcks:vector ETV
attr interpolationmode sample-hold
vector 504 scenario.client[2].tcp.conn-75 tcpRcvQueueBytes:vector ETV
attr interpolationmode sample-hold
vector 505 scenario.client[2].tcp.conn-75 rcvAdv:vector ETV
attr interpolationmode sample-hold
vector 506 scenario.client[2].tcp.conn-75 rcvWnd:vector ETV
attr interpolationmode sample-hold
vector 507 scenario.client[2].tcp.conn-75 sndAck:vector ETV
attr interpolationmode sample-hold
vector 508 scenario.client[5].tcp.conn-76 rcvAdv:vector ETV
attr interpolationmode sample-hold
vector 509 scenario.client[5].tcp.conn-76 sndWnd:vector ETV
attr interpolationmode sample-hold
vector 510 scenario.client[5].tcp.conn-76 tcpRcvQueueBytes:vector ETV
attr interpolationmode sample-hold
vector 511 scenario.client[5].tcp.conn-76 rcvWnd:vector ETV
attr interpolationmode sample-hold
vector 512 scenario.client[5].tcp.conn-76 sndAck:vector ETV
attr interpolationmode sample-hold
vector 513 scenario.client[2].tcp.conn-75 rcvSeq:vector ETV
attr interpolationmode sample-hold
vector 514 scenario.client[2].tcp.conn-75 rcvAck:vector ETV
attr interpolationmode sample-hold
vector 515 scenario.client[2].tcp.conn-75 sndWnd:vector ETV
attr interpolationmode sample-hold
vector 516 scenario.client[2].tcp.conn-75 unacked:vector ETV
attr interpolationmode sample-hold
vector 517 scenario.client[5].tcp.conn-76 rcvSeq:vector ETV
attr interpolationmode sample-hold
vector 518 scenario.client[5].tcp.conn-76 rcvAck:vector ETV
attr interpolationmode sample-hold
vector 519 scenario.client[5].tcp.conn-76 unacked:vector ETV
attr interpolationmode sample-hold
vector 520 scenario.client[5].tcp.conn-76 cwnd:vector ETV
attr interpolationmode sample-hold
vector 521 scenario.client[5].tcp.conn-76 ssthresh:vector ETV
attr interpolationmode sample-hold
vector 522 scenario.client[5].tcp.conn-76 dupAcks:vector ETV
attr interpolationmode sample-hold
vector 523 scenario.client[2].tcp.conn-75 rtt:vector ETV
attr interpolationmode sample-hold
vector 524 scenario.client[2].tcp.conn-75 srtt:vector ETV
attr interpolationmode sample-hold
vector 525 scenario.client[2].tcp.conn-75 rttvar:vector ETV
attr interpolationmode sample-hold
vector 526 scenario.client[2].tcp.conn-75 rto:vector ETV
attr interpolationmode sample-hold
vector 527 scenario.client[2].tcp.conn-75 cwnd:vector ETV
attr interpolationmode sample-hold
vector 528 scenario.client[2].tcp.conn-75 ssthresh:vector ETV
attr interpolationmode sample-hold
vector 529 scenario.client[2].tcp.conn-75 dupAcks:vector ETV
attr interpolationmode sample-hold
vector 530 scenario.client[5].tcp.conn-77 tcpRcvQueueBytes:vector ETV
attr interpolationmode sample-hold
vector 531 scenario.client[5].tcp.conn-77 rcvAdv:vector ETV
attr interpolationmode sample-hold
vector 532 scenario.client[5].tcp.conn-77 rcvWnd:vector ETV
attr interpolationmode sample-hold
vector 533 scenario.client[5].tcp.conn-77 sndAck:vector ETV
attr interpolationmode sample-hold
vector 534 scenario.client[5].ppp[3].ppp rcvdPkFromHl:vector(packetBytes) ETV
attr interpolationmode none
attr source packetReceivedFromUpper
attr title "packets received from higher layer, vector(packetBytes)"
vector 535 scenario.client[5].ppp[3].ppp.queue packetPushed:vector(packetBytes) ETV
attr interpolationmode none
attr title "packet pushed, vector(packetBytes)"
vector 536 scenario.client[5].ppp[3].ppp.queue queueLength:vector ETV
attr interpolationmode sample-hold
attr source "count(packetPushed) - count(packetPopped) - count(packetRemoved) - count(packetDropped)"
attr title "queue length, vector"
vector 537 scenario.client[5].ppp[3].ppp.queue packetPopped:vector(packetBytes) ETV
attr interpolationmode none
attr title "packet popped, vector(packetBytes)"
vector 538 scenario.client[5].ppp[3].ppp.queue queueingTime:vector ETV
attr interpolationmode none
attr source queueingTime(packetPopped)
attr title "queueing times, vector"
attr unit s
vector 539 scenario.client[5].ppp[3].ppp txPk:vector(packetBytes) ETV
attr interpolationmode none
attr source packetSentToLower
attr title "packets transmitted, vector(packetBytes)"
vector 540 scenario.client[3].ppp[4].ppp rxPkOk:vector(packetBytes) ETV
attr interpolationmode none
attr source rxPkOk
attr title "packets received OK, vector(packetBytes)"
vector 541 scenario.client[3].ppp[4].ppp passedUpPk:vector(packetBytes) ETV
attr interpolationmode none
attr source packetSentToUpper
attr title "packets passed to higher layer, vector(packetBytes)"
vector 542 scenario.client[3].tcp.conn-78 rcvAdv:vector ETV
attr interpolationmode sample-hold
vector 543 scenario.client[3].tcp.conn-78 sndWnd:vector ETV
attr interpolationmode sample-hold
vector 544 scenario.client[3].tcp.conn-78 tcpRcvQueueBytes:vector ETV
attr interpolationmode sample-hold
vector 545 scenario.client[3].tcp.conn-78 rcvWnd:vector ETV
attr interpolationmode sample-hold
vector 546 scenario.client[3].tcp.conn-78 sndAck:vector ETV
attr interpolationmode sample-hold
vector 547 scenario.client[3].ppp[4].ppp rcvdPkFromHl:vector(packetBytes) ETV
attr interpolationmode none
attr source packetReceivedFromUpper
attr title "packets received from higher layer, vector(packetBytes)"
vector 548 scenario.client[3].ppp[4].ppp.queue packetPushed:vector(packetBytes) ETV
attr interpolationmode none
attr title "packet pushed, vector(packetBytes)"
vector 549 scenario.client[3].ppp[4].ppp.queue queueLength:vector ETV
attr interpolationmode sample-hold
attr source "count(packetPushed) - count(packetPopped) - count(packetRemoved) - count(packetDropped)"
attr title "queue length, vector"
vector 550 scenario.client[3].ppp[4].ppp.queue packetPopped:vector(packetBytes) ETV
attr interpolationmode none
attr title "packet popped, vector(packetBytes)"
vector 551 scenario.client[3].ppp[4].ppp.queue queueingTime:vector ETV
attr interpolationmode none
attr source queueingTime(packetPopped)
attr title "queueing times, vector"
attr unit s
vector 552 scenario.client[3].ppp[4].ppp txPk:vector(packetBytes) ETV
attr interpolationmode none
attr source packetSentToLower
attr title "packets transmitted, vector(packetBytes)"
vector 553 scenario.client[5].ppp[3].ppp rxPkOk:vector(packetBytes) ETV
attr interpolationmode none
attr source rxPkOk
attr title "packets received OK, vector(packetBytes)"
vector 554 scenario.client[5].ppp[3].ppp passedUpPk:vector(packetBytes) ETV
attr interpolationmode none
attr source packetSentToUpper
attr title "packets passed to higher layer, vector(packetBytes)"
vector 555 scenario.client[5].tcp.conn-77 rcvSeq:vector ETV
attr interpolationmode sample-hold
vector 556 scenario.client[5].tcp.conn-77 rcvAck:vector ETV
attr interpolationmode sample-hold
vector 557 scenario.client[5].tcp.conn-77 sndWnd:vector ETV
attr interpolationmode sample-hold
vector 558 scenario.client[5].tcp.conn-77 unacked:vector ETV
attr interpolationmode sample-hold
vector 559 scenario.client[3].tcp.conn-78 rcvSeq:vector ETV
attr interpolationmode sample-hold
vector 560 scenario.client[3].tcp.conn-78 rcvAck:vector ETV
attr interpolationmode sample-hold
vector 561 scenario.client[3].tcp.conn-78 unacked:vector ETV
attr interpolationmode sample-hold
vector 562 scenario.client[3].tcp.conn-78 cwnd:vector ETV
attr interpolationmode sample-hold
vector 563 scenario.client[3].tcp.conn-78 ssthresh:vector ETV
attr interpolationmode sample-hold
vector 564 scenario.client[3].tcp.conn-78 dupAcks:vector ETV
attr interpolationmode sample-hold
vector 565 scenario.client[5].tcp.conn-77 rtt:vector ETV
attr interpolationmode sample-hold
vector 566 scenario.client[5].tcp.conn-77 srtt:vector ETV
attr interpolationmode sample-hold
vector 567 scenario.client[5].tcp.conn-77 rttvar:vector ETV
attr interpolationmode sample-hold
vector 568 scenario.client[5].tcp.conn-77 rto:vector ETV
attr interpolationmode sample-hold
vector 569 scenario.client[5].tcp.conn-77 cwnd:vector ETV
attr interpolationmode sample-hold
vector 570 scenario.client[5].tcp.conn-77 ssthresh:vector ETV
attr interpolationmode sample-hold
vector 571 scenario.client[5].tcp.conn-77 dupAcks:vector ETV
attr interpolationmode sample-hold
vector 572 scenario.client[5].tcp.conn-79 tcpRcvQueueBytes:vector ETV
attr interpolationmode sample-hold
vector 573 scenario.client[5].tcp.conn-79 rcvAdv:vector ETV
attr interpolationmode sample-hold
vector 574 scenario.client[5].tcp.conn-79 rcvWnd:vector ETV
attr interpolationmode sample-hold
vector 575 scenario.client[5].tcp.conn-79 sndAck:vector ETV
attr interpolationmode sample-hold
vector 576 scenario.client[5].ppp[4].ppp rcvdPkFromHl:vector(packetBytes) ETV
attr interpolationmode none
attr source packetReceivedFromUpper
attr title "packets received from higher layer, vector(packetBytes)"
vector 577 scenario.client[5].ppp[4].ppp.queue packetPushed:vector(packetBytes) ETV
attr interpolationmode none
attr title "packet pushed, vector(packetBytes)"
vector 578 scenario.client[5].ppp[4].ppp.queue queueLength:vector ETV
attr interpolationmode sample-hold
attr source "count(packetPushed) - count(packetPopped) - count(packetRemoved) - count(packetDropped)"
attr title "queue length, vector"
vector 579 scenario.client[5].ppp[4].ppp.queue packetPopped:vector(packetBytes) ETV
attr interpolationmode none
attr title "packet popped, vector(packetBytes)"
vector 580 scenario.client[5].ppp[4].ppp.queue queueingTime:vector ETV
attr interpolationmode none
attr source queueingTime(packetPopped)
attr title "queueing times, vector"
attr unit s
vector 581 scenario.client[5].ppp[4].ppp txPk:vector(packetBytes) ETV
attr interpolationmode none
attr source packetSentToLower
attr title "packets transmitted, vector(packetBytes)"
vector 582 scenario.client[4].ppp[4].ppp rxPkOk:vector(packetBytes) ETV
attr interpolationmode none
attr source rxPkOk
attr title "packets received OK, vector(packetBytes)"
vector 583 scenario.client[4].ppp[4].ppp passedUpPk:vector(packetBytes) ETV
attr interpolationmode none
attr source packetSentToUpper
attr title "packets passed to higher layer, vector(packetBytes)"
vector 584 scenario.client[4].tcp.conn-80 rcvAdv:vector ETV
attr interpolationmode sample-hold
vector 585 scenario.client[4].tcp.conn-80 sndWnd:vector ETV
attr interpolationmode sample-hold
vector 586 scenario.client[4].tcp.conn-80 tcpRcvQueueBytes:vector ETV
attr interpolationmode sample-hold
vector 587 scenario.client[4].tcp.conn-80 rcvWnd:vector ETV
attr interpolationmode sample-hold
vector 588 scenario.client[4].tcp.conn-80 sndAck:vector ETV
attr interpolationmode sample-hold
vector 589 scenario.client[4].ppp[4].ppp rcvdPkFromHl:vector(packetBytes) ETV
attr interpolationmode none
attr source packetReceivedFromUpper
attr title "packets received from higher layer, vector(packetBytes)"
vector 590 scenario.client[4].ppp[4].ppp.queue packetPushed:vector(packetBytes) ETV
attr interpolationmode none
attr title "packet pushed, vector(packetBytes)"
vector 591 scenario.client[4].ppp[4].ppp.queue queueLength:vector ETV
attr interpolationmode sample-hold
attr source "count(packetPushed) - count(packetPopped) - count(packetRemoved) - count(packetDropped)"
attr title "queue length, vector"
vector 592 scenario.client[4].ppp[4].ppp.queue packetPopped:vector(packetBytes) ETV
attr interpolationmode none
attr title "packet popped, vector(packetBytes)"
vector 593 scenario.client[4].ppp[4].ppp.queue queueingTime:vector ETV
attr interpolationmode none
attr source queueingTime(packetPopped)
attr title "queueing times, vector"
attr unit s
vector 594 scenario.client[4].ppp[4].ppp txPk:vector(packetBytes) ETV
attr interpolationmode none
attr source packetSentToLower
attr title "packets transmitted, vector(packetBytes)"
vector 595 scenario.client[5].ppp[4].ppp rxPkOk:vector(packetBytes) ETV
attr interpolationmode none
attr source rxPkOk
attr title "packets received OK, vector(packetBytes)"
vector 596 scenario.client[5].ppp[4].ppp passedUpPk:vector(packetBytes) ETV
attr interpolationmode none
attr source packetSentToUpper
attr title "packets passed to higher layer, vector(packetBytes)"
vector 597 scenario.client[5].tcp.conn-79 rcvSeq:vector ETV
attr interpolationmode sample-hold
vector 598 scenario.client[5].tcp.conn-79 rcvAck:vector ETV
attr interpolationmode sample-hold
vector 599 scenario.client[5].tcp.conn-79 sndWnd:vector ETV
attr interpolationmode sample-hold
vector 600 scenario.client[5].tcp.conn-79 unacked:vector ETV
attr interpolationmode sample-hold
vector 601 scenario.client[4].tcp.conn-80 rcvSeq:vector ETV
attr interpolationmode sample-hold
vector 602 scenario.client[4].tcp.conn-80 rcvAck:vector ETV
attr interpolationmode sample-hold
vector 603 scenario.client[4].tcp.conn-80 unacked:vector ETV
attr interpolationmode sample-hold
vector 604 scenario.client[4].tcp.conn-80 cwnd:vector ETV
attr interpolationmode sample-hold
vector 605 scenario.client[4].tcp.conn-80 ssthresh:vector ETV
attr interpolationmode sample-hold
vector 606 scenario.client[4].tcp.conn-80 dupAcks:vector ETV
attr interpolationmode sample-hold
vector 607 scenario.client[5].tcp.conn-79 rtt:vector ETV
attr interpolationmode sample-hold
vector 608 scenario.client[5].tcp.conn-79 srtt:vector ETV
attr interpolationmode sample-hold
vector 609 scenario.client[5].tcp.conn-79 rttvar:vector ETV
attr interpolationmode sample-hold
vector 610 scenario.client[5].tcp.conn-79 rto:vector ETV
attr interpolationmode sample-hold
vector 611 scenario.client[5].tcp.conn-79 cwnd:vector ETV
attr interpolationmode sample-hold
vector 612 scenario.client[5].tcp.conn-79 ssthresh:vector ETV
attr interpolationmode sample-hold
vector 613 scenario.client[5].tcp.conn-79 dupAcks:vector ETV
attr interpolationmode sample-hold
vector 614 scenario.client[0].tcp.conn-81 tcpRcvQueueBytes:vector ETV
attr interpolationmode sample-hold
vector 615 scenario.client[0].tcp.conn-81 rcvAdv:vector ETV
attr interpolationmode sample-hold
vector 616 scenario.client[0].tcp.conn-81 rcvWnd:vector ETV
attr interpolationmode sample-hold
vector 617 scenario.client[0].tcp.conn-81 sndAck:vector ETV
attr interpolationmode sample-hold
vector 618 scenario.client[0].ppp[5].ppp rcvdPkFromHl:vector(packetBytes) ETV
attr interpolationmode none
attr source packetReceivedFromUpper
attr title "packets received from higher layer, vector(packetBytes)"
vector 619 scenario.client[0].ppp[5].ppp.queue packetPushed:vector(packetBytes) ETV
attr interpolationmode none
attr title "packet pushed, vector(packetBytes)"
vector 620 scenario.client[0].ppp[5].ppp.queue queueLength:vector ETV
attr interpolationmode sample-hold
attr source "count(packetPushed) - count(packetPopped) - count(packetRemoved) - count(packetDropped)"
attr title "queue length, vector"
vector 621 scenario.client[0].ppp[5].ppp.queue packetPopped:vector(packetBytes) ETV
attr interpolationmode none
attr title "packet popped, vector(packetBytes)"
vector 622 scenario.client[0].ppp[5].ppp.queue queueingTime:vector ETV
attr interpolationmode none
attr source queueingTime(packetPopped)
attr title "queueing times, vector"
attr unit s
vector 623 scenario.client[0].ppp[5].ppp txPk:vector(packetBytes) ETV
attr interpolationmode none
attr source packetSentToLower
attr title "packets transmitted, vector(packetBytes)"
vector 624 scenario.client[6].ppp[0].ppp rxPkOk:vector(packetBytes) ETV
attr interpolationmode none
attr source rxPkOk
attr title "packets received OK, vector(packetBytes)"
vector 625 scenario.client[6].ppp[0].ppp passedUpPk:vector(packetBytes) ETV
attr interpolationmode none
attr source packetSentToUpper
attr title "packets passed to higher layer, vector(packetBytes)"
vector 626 scenario.client[6].tcp.conn-6 rcvSeq:vector ETV
attr interpolationmode sample-hold
vector 627 scenario.client[6].tcp.conn-6 rcvAck:vector ETV
attr interpolationmode sample-hold
vector 628 scenario.client[6].tcp.conn-82 rcvAdv:vector ETV
attr interpolationmode sample-hold
vector 629 scenario.client[6].tcp.conn-82 sndWnd:vector ETV
attr interpolationmode sample-hold
vector 630 scenario.client[6].tcp.conn-82 tcpRcvQueueBytes:vector ETV
attr interpolationmode sample-hold
vector 631 scenario.client[6].tcp.conn-82 rcvWnd:vector ETV
attr interpolationmode sample-hold
vector 632 scenario.client[6].tcp.conn-82 sndAck:vector ETV
attr interpolationmode sample-hold
vector 633 scenario.client[6].ppp[0].ppp rcvdPkFromHl:vector(packetBytes) ETV
attr interpolationmode none
attr source packetReceivedFromUpper
attr title "packets received from higher layer, vector(packetBytes)"
vector 634 scenario.client[6].ppp[0].ppp.queue packetPushed:vector(packetBytes) ETV
attr interpolationmode none
attr title "packet pushed, vector(packetBytes)"
vector 635 scenario.client[6].ppp[0].ppp.queue queueLength:vector ETV
attr interpolationmode sample-hold
attr source "count(packetPushed) - count(packetPopped) - count(packetRemoved) - count(packetDropped)"
attr title "queue length, vector"
vector 636 scenario.client[6].ppp[0].ppp.queue packetPopped:vector(packetBytes) ETV
attr interpolationmode none
attr title "packet popped, vector(packetBytes)"
vector 637 scenario.client[6].ppp[0].ppp.queue queueingTime:vector ETV
attr interpolationmode none
attr source queueingTime(packetPopped)
attr title "queueing times, vector"
attr unit s
[...]
1466	17406	57.947326179634	1391226
1466	17509	58.117269832817	1391228
1466	17982	59.845733113439	1391229
1466	18499	62.050088104741	1391230
1466	18822	63.921711994631	1391231
1466	19183	65.970031950684	1391232
1466	19446	68.06283568615	1391233
1466	19679	70.222175875975	1391234
1466	19911	72.100788504535	1391235
1467	1737	5.566590648275	1391420
1467	1754	5.568350648275	1391421
1467	2483	7.51200770104	1391421
1467	2648	7.951379156469	1391421
1467	3393	10.342602033144	1391421
1467	4182	12.547189438764	1391421
1467	4202	12.606556621603	1391421
1467	4880	15.015089596852	1391421
1467	5826	17.800156890164	1391421
1467	6884	20.151083126927	1391421
1467	6994	20.279665458665	1391421
1467	7606	22.658410621052	1391421
1467	8274	25.140630537432	1391421
1467	8926	27.596729661551	1391421
1467	9624	30.169269106724	1391421
1467	9984	32.399549571825	1391421
1467	10247	34.821913535569	1391421
1467	10569	37.330962273629	1391421
1467	10907	39.54124090762	1391421
1467	11777	41.889982019105	1391421
1467	11807	41.954851599717	1391421
1467	12474	43.900812474989	1391421
1467	12580	44.319273684502	1391421
1467	13297	46.400419349348	1391421
1467	13637	47.266845373942	1391421
1467	13994	48.403681778011	1391421
1467	14545	49.797006816857	1391421
1467	14880	50.843062862639	1391421
1467	15587	53.413362249216	1391421
1467	16410	55.989313663749	1391421
1467	16510	56.142696077393	1391421
1467	17413	57.948202179634	1391421
1467	17528	58.118145832817	1391421
1467	17989	59.846609113439	1391421
1467	18506	62.050964104741	1391421
1467	18829	63.922587994631	1391421
1467	19195	65.970907950684	1391421
1467	19453	68.06371168615	1391421
1467	19686	70.223051875975	1391421
1467	19918	72.101664504535	1391421
1468	1737	5.566590648275	1391194
1468	1754	5.568350648275	1391195
1468	2483	7.51200770104	1391196
1468	2648	7.951379156469	1391197
1468	3393	10.342602033144	1391198
1468	4182	12.547189438764	1391199
1468	4202	12.606556621603	1391200
1468	4880	15.015089596852	1391201
1468	5826	17.800156890164	1391202
1468	6884	20.151083126927	1391203
1468	6994	20.279665458665	1391205
1468	7606	22.658410621052	1391206
1468	8274	25.140630537432	1391207
1468	8926	27.596729661551	1391208
1468	9624	30.169269106724	1391209
1468	9984	32.399549571825	1391210
1468	10247	34.821913535569	1391211
1468	10569	37.330962273629	1391212
1468	10907	39.54124090762	1391213
1468	11777	41.889982019105	1391214
1468	11807	41.954851599717	1391215
1468	12474	43.900812474989	1391216
1468	12580	44.319273684502	1391217
1468	13297	46.400419349348	1391218
1468	13637	47.266845373942	1391219
1468	13994	48.403681778011	1391220
1468	14545	49.797006816857	1391221
1468	14880	50.843062862639	1391222
1468	15587	53.413362249216	1391223
1468	16410	55.989313663749	1391224
1468	16510	56.142696077393	1391225
1468	17413	57.948202179634	1391226
1468	17528	58.118145832817	1391228
1468	17989	59.846609113439	1391229
1468	18506	62.050964104741	1391230
1468	18829	63.922587994631	1391231
1468	19195	65.970907950684	1391232
1468	19453	68.06371168615	1391233
1468	19686	70.223051875975	1391234
1468	19918	72.101664504535	1391235
1469	1737	5.566590648275	7504
1469	1754	5.568350648275	7503
1469	2483	7.51200770104	7504
1469	2648	7.951379156469	7504
1469	3393	10.342602033144	7504
1469	4182	12.547189438764	7504
1469	4202	12.606556621603	7504
1469	4880	15.015089596852	7504
1469	5826	17.800156890164	7504
1469	6884	20.151083126927	7504
1469	6994	20.279665458665	7504
1469	7606	22.658410621052	7504
1469	8274	25.140630537432	7504
1469	8926	27.596729661551	7504
1469	9624	30.169269106724	7504
1469	9984	32.399549571825	7504
1469	10247	34.821913535569	7504
1469	10569	37.330962273629	7504
1469	10907	39.54124090762	7504
1469	11777	41.889982019105	7504
1469	11807	41.954851599717	7504
1469	12474	43.900812474989	7504
1469	12580	44.319273684502	7504
1469	13297	46.400419349348	7504
1469	13637	47.266845373942	7504
1469	13994	48.403681778011	7504
1469	14545	49.797006816857	7504
1469	14880	50.843062862639	7504
1469	15587	53.413362249216	7504
1469	16410	55.989313663749	7504
1469	16510	56.142696077393	7504
1469	17413	57.948202179634	7504
1469	17528	58.118145832817	7504
1469	17989	59.846609113439	7504
1469	18506	62.050964104741	7504
1469	18829	63.922587994631	7504
1469	19195	65.970907950684	7504
1469	19453	68.06371168615	7504
1469	19686	70.223051875975	7504
1469	19918	72.101664504535	7504
1470	1737	5.566590648275	1
1470	1754	5.568350648275	0
1470	2466	7.50987170104	1
1470	2483	7.51200770104	0
1470	2635	7.949619156469	1
1470	2648	7.951379156469	0
1470	3380	10.340842033144	1
1470	3393	10.342602033144	0
1470	4165	12.545053438764	1
1470	4182	12.547189438764	0
1470	4184	12.604796621603	1
1470	4202	12.606556621603	0
1470	4867	15.013329596852	1
1470	4880	15.015089596852	0
1470	5813	17.798396890164	1
1470	5826	17.800156890164	0
1470	6871	20.149323126927	1
1470	6884	20.151083126927	0
1470	6914	20.277897458665	2
1470	6994	20.279665458665	0
1470	7593	22.656650621052	1
1470	7606	22.658410621052	0
1470	8261	25.138870537432	1
1470	8274	25.140630537432	0
1470	8913	27.594969661551	1
1470	8926	27.596729661551	0
1470	9611	30.167509106724	1
1470	9624	30.169269106724	0
1470	9971	32.397789571825	1
1470	9984	32.399549571825	0
1470	10234	34.820153535569	1
1470	10247	34.821913535569	0
1470	10556	37.329202273629	1
1470	10569	37.330962273629	0
1470	10894	39.53948090762	1
1470	10907	39.54124090762	0
1470	11764	41.888222019105	1
1470	11777	41.889982019105	0
1470	11790	41.952715599717	1
1470	11807	41.954851599717	0
1470	12457	43.898676474989	1
1470	12474	43.900812474989	0
1470	12567	44.317513684502	1
1470	12580	44.319273684502	0
1470	13279	46.398659349348	1
1470	13297	46.400419349348	0
1470	13620	47.264709373942	1
1470	13637	47.266845373942	0
1470	13976	48.401921778011	1
1470	13994	48.403681778011	0
1470	14528	49.794870816857	1
1470	14545	49.797006816857	0
1470	14862	50.841302862639	1
1470	14880	50.843062862639	0
1470	15574	53.411602249216	1
1470	15587	53.413362249216	0
1470	16392	55.987553663749	1
1470	16410	55.989313663749	0
1470	16493	56.140560077393	1
1470	16510	56.142696077393	0
1470	17400	57.946442179634	1
1470	17413	57.948202179634	0
1470	17458	58.116001832817	2
1470	17528	58.118145832817	0
1470	17976	59.844849113439	1
1470	17989	59.846609113439	0
1470	18493	62.049204104741	1
1470	18506	62.050964104741	0
1470	18816	63.920827994631	1
1470	18829	63.922587994631	0
1470	19177	65.969147950684	1
1470	19195	65.970907950684	0
1470	19440	68.06195168615	1
1470	19453	68.06371168615	0
1470	19673	70.221291875975	1
1470	19686	70.223051875975	0
1470	19905	72.099904504535	1
1470	19918	72.101664504535	0
1471	1744	5.567474648275	1391194
1471	2476	7.51113170104	1391195
1471	2641	7.950503156469	1391196
1471	3386	10.341726033144	1391197
1471	4175	12.546313438764	1391198
1471	4190	12.605680621603	1391199
1471	4873	15.014213596852	1391200
1471	5819	17.799280890164	1391201
1471	6877	20.150207126927	1391202
1471	6952	20.278789458665	1391203
1471	7599	22.657534621052	1391205
1471	8267	25.139754537432	1391206
1471	8919	27.595853661551	1391207
1471	9617	30.168393106724	1391208
1471	9977	32.398673571825	1391209
1471	10240	34.821037535569	1391210
1471	10562	37.330086273629	1391211
1471	10900	39.54036490762	1391212
1471	11770	41.889106019105	1391213
1471	11800	41.953975599717	1391214
1471	12467	43.899936474989	1391215
1471	12573	44.318397684502	1391216
1471	13285	46.399543349348	1391217
1471	13630	47.265969373942	1391218
1471	13982	48.402805778011	1391219
1471	14538	49.796130816857	1391220
1471	14868	50.842186862639	1391221
1471	15580	53.412486249216	1391222
1471	16398	55.988437663749	1391223
1471	16503	56.141820077393	1391224
1471	17406	57.947326179634	1391225
1471	17509	58.117269832817	1391226
1471	17982	59.845733113439	1391228
1471	18499	62.050088104741	1391229
1471	18822	63.921711994631	1391230
1471	19183	65.970031950684	1391231
1471	19446	68.06283568615	1391232
1471	19679	70.222175875975	1391233
1471	19911	72.100788504535	1391234
1472	1744	5.567474648275	1391421
1472	2476	7.51113170104	1391421
1472	2641	7.950503156469	1391421
1472	3386	10.341726033144	1391421
1472	4175	12.546313438764	1391421
1472	4190	12.605680621603	1391421
1472	4873	15.014213596852	1391421
1472	5819	17.799280890164	1391421
1472	6877	20.150207126927	1391421
1472	6952	20.278789458665	1391421
1472	7599	22.657534621052	1391421
1472	8267	25.139754537432	1391421
1472	8919	27.595853661551	1391421
1472	9617	30.168393106724	1391421
1472	9977	32.398673571825	1391421
1472	10240	34.821037535569	1391421
1472	10562	37.330086273629	1391421
1472	10900	39.54036490762	1391421
1472	11770	41.889106019105	1391421
1472	11800	41.953975599717	1391421
1472	12467	43.899936474989	1391421
1472	12573	44.318397684502	1391421
1472	13285	46.399543349348	1391421
1472	13630	47.265969373942	1391421
1472	13982	48.402805778011	1391421
1472	14538	49.796130816857	1391421
1472	14868	50.842186862639	1391421
1472	15580	53.412486249216	1391421
1472	16398	55.988437663749	1391421
1472	16503	56.141820077393	1391421
1472	17406	57.947326179634	1391421
1472	17509	58.117269832817	1391421
1472	17982	59.845733113439	1391421
1472	18499	62.050088104741	1391421
1472	18822	63.921711994631	1391421
1472	19183	65.970031950684	1391421
1472	19446	68.06283568615	1391421
1472	19679	70.222175875975	1391421
1472	19911	72.100788504535	1391421
1473	1744	5.567474648275	0
1474	1744	5.567474648275	1072
1475	1744	5.567474648275	4294967295
1476	1744	5.567474648275	0
1476	2476	7.51113170104	0
1476	2641	7.950503156469	0
1476	3386	10.341726033144	0
1476	4175	12.546313438764	0
1476	4190	12.605680621603	0
1476	4873	15.014213596852	0
1476	5819	17.799280890164	0
1476	6877	20.150207126927	0
1476	6952	20.278789458665	0
1476	7599	22.657534621052	0
1476	8267	25.139754537432	0
1476	8919	27.595853661551	0
1476	9617	30.168393106724	0
1476	9977	32.398673571825	0
1476	10240	34.821037535569	0
1476	10562	37.330086273629	0
1476	10900	39.54036490762	0
1476	11770	41.889106019105	0
1476	11800	41.953975599717	0
1476	12467	43.899936474989	0
1476	12573	44.318397684502	0
1476	13285	46.399543349348	0
1476	13630	47.265969373942	0
1476	13982	48.402805778011	0
1476	14538	49.796130816857	0
1476	14868	50.842186862639	0
1476	15580	53.412486249216	0
1476	16398	55.988437663749	0
1476	16503	56.141820077393	0
1476	17406	57.947326179634	0
1476	17509	58.117269832817	0
1476	17982	59.845733113439	0
1476	18499	62.050088104741	0
1476	18822	63.921711994631	0
1476	19183	65.970031950684	0
1476	19446	68.06283568615	0
1476	19679	70.222175875975	0
1476	19911	72.100788504535	0
1477	1754	5.568350648275	0.00176
1477	2483	7.51200770104	0.002136
1477	2648	7.951379156469	0.00176
1477	3393	10.342602033144	0.00176
1477	4182	12.547189438764	0.002136
1477	4202	12.606556621603	0.00176
1477	4880	15.015089596852	0.00176
1477	5826	17.800156890164	0.00176
1477	6884	20.151083126927	0.00176
1477	6994	20.279665458665	0.001768
1477	7606	22.658410621052	0.00176
1477	8274	25.140630537432	0.00176
1477	8926	27.596729661551	0.00176
1477	9624	30.169269106724	0.00176
1477	9984	32.399549571825	0.00176
1477	10247	34.821913535569	0.00176
1477	10569	37.330962273629	0.00176
1477	10907	39.54124090762	0.00176
1477	11777	41.889982019105	0.00176
1477	11807	41.954851599717	0.002136
1477	12474	43.900812474989	0.002136
1477	12580	44.319273684502	0.00176
1477	13297	46.400419349348	0.00176
1477	13637	47.266845373942	0.002136
1477	13994	48.403681778011	0.00176
1477	14545	49.797006816857	0.002136
1477	14880	50.843062862639	0.00176
1477	15587	53.413362249216	0.00176
1477	16410	55.989313663749	0.00176
1477	16510	56.142696077393	0.002136
1477	17413	57.948202179634	0.00176
1477	17528	58.118145832817	0.002144
1477	17989	59.846609113439	0.00176
1477	18506	62.050964104741	0.00176
1477	18829	63.922587994631	0.00176
1477	19195	65.970907950684	0.00176
1477	19453	68.06371168615	0.00176
1477	19686	70.223051875975	0.00176
1477	19918	72.101664504535	0.00176
1478	1754	5.568350648275	0.00022
1478	2483	7.51200770104	0.0004595
1478	2648	7.951379156469	0.0006220625
1478	3393	10.342602033144	0.000764304688
1478	4182	12.547189438764	0.000935766602
1478	4202	12.606556621603	0.001038795777
1478	4880	15.015089596852	0.001128946305
1478	5826	17.800156890164	0.001207828017
1478	6884	20.151083126927	0.001276849515
1478	6994	20.279665458665	0.001338243326
1478	7606	22.658410621052	0.00139096291
1478	8274	25.140630537432	0.001437092546
1478	8926	27.596729661551	0.001477455978
1478	9624	30.169269106724	0.001512773981
1478	9984	32.399549571825	0.001543677233
1478	10247	34.821913535569	0.001570717579
1478	10569	37.330962273629	0.001594377882
1478	10907	39.54124090762	0.001615080647
1478	11777	41.889982019105	0.001633195566
1478	11807	41.954851599717	0.00169604612
1478	12474	43.900812474989	0.001751040355
1478	12580	44.319273684502	0.001752160311
1478	13297	46.400419349348	0.001753140272
1478	13637	47.266845373942	0.001800997738
1478	13994	48.403681778011	0.001795873021
1478	14545	49.797006816857	0.001838388893
1478	14880	50.843062862639	0.001828590281
1478	15587	53.413362249216	0.001820016496
1478	16410	55.989313663749	0.001812514434
1478	16510	56.142696077393	0.00185295013
1478	17413	57.948202179634	0.001841331364
1478	17528	58.118145832817	0.001879164944
1478	17989	59.846609113439	0.001864269326
1478	18506	62.050964104741	0.00185123566
1478	18829	63.922587994631	0.001839831203
1478	19195	65.970907950684	0.001829852303
1478	19453	68.06371168615	0.001821120765
1478	19686	70.223051875975	0.001813480669
1478	19918	72.101664504535	0.001806795585
1479	1754	5.568350648275	0.65647
1479	2483	7.51200770104	0.57465075
1479	2648	7.951379156469	0.50298196875
1479	3393	10.342602033144	0.440251464844
1479	4182	12.547189438764	0.385391493653
1479	4202	12.606556621603	0.337320586121
1479	4880	15.015089596852	0.295245663384
1479	5826	17.800156890164	0.258418837173
1479	6884	20.151083126927	0.226185504024
1479	6994	20.279665458665	0.197973709832
1479	7606	22.658410621052	0.173279715687
1479	8274	25.140630537432	0.151665880862
1479	8926	27.596729661551	0.132748009186
1479	9624	30.169269106724	0.116189826041
1479	9984	32.399549571825	0.101697001038
1479	10247	34.821913535569	0.089011916254
1479	10569	37.330962273629	0.077909087025
1479	10907	39.54124090762	0.068191153912
1479	11777	41.889982019105	0.059685374592
1479	11807	41.954851599717	0.052287553322
1479	12474	43.900812474989	0.045806603392
1479	12580	44.319273684502	0.040081897924
1479	13297	46.400419349348	0.035072640645
1479	13637	47.266845373942	0.03073641803
1479	13994	48.403681778011	0.026899490494
1479	14545	49.797006816857	0.023579570055
1479	14880	50.843062862639	0.02064192241
1479	15587	53.413362249216	0.018070255894
1479	16410	55.989313663749	0.015818975969
1479	16510	56.142696077393	0.013882039669
1479	17413	57.948202179634	0.012158403477
1479	17528	58.118145832817	0.010676436622
1479	17989	59.846609113439	0.009356777662
1479	18506	62.050964104741	0.00820021412
1479	18829	63.922587994631	0.007186591813
1479	19195	65.970907950684	0.006298246737
1479	19453	68.06371168615	0.005519697433
1479	19686	70.223051875975	0.00483737535
1479	19918	72.101664504535	0.004239388515
1480	1754	5.568350648275	2.6261
1480	2483	7.51200770104	2.2990625
1480	2648	7.951379156469	2.0125499375
1480	3393	10.342602033144	1.761770164064
1480	4182	12.547189438764	1.542501741214
1480	4202	12.606556621603	1.350321140261
1480	4880	15.015089596852	1.182111599841
1480	5826	17.800156890164	1.034883176709
1480	6884	20.151083126927	1
1480	6994	20.279665458665	1
1480	7606	22.658410621052	1
1480	8274	25.140630537432	1
1480	8926	27.596729661551	1
1480	9624	30.169269106724	1
1480	9984	32.399549571825	1
1480	10247	34.821913535569	1
1480	10569	37.330962273629	1
1480	10907	39.54124090762	1
1480	11777	41.889982019105	1
1480	11807	41.954851599717	1
1480	12474	43.900812474989	1
1480	12580	44.319273684502	1
1480	13297	46.400419349348	1
1480	13637	47.266845373942	1
1480	13994	48.403681778011	1
1480	14545	49.797006816857	1
1480	14880	50.843062862639	1
1480	15587	53.413362249216	1
1480	16410	55.989313663749	1
1480	16510	56.142696077393	1
1480	17413	57.948202179634	1
1480	17528	58.118145832817	1
1480	17989	59.846609113439	1
1480	18506	62.050964104741	1
1480	18829	63.922587994631	1
1480	19195	65.970907950684	1
1480	19453	68.06371168615	1
1480	19686	70.223051875975	1
1480	19918	72.101664504535	1
1481	1754	5.568350648275	1072
1481	2483	7.51200770104	1608
1481	2648	7.951379156469	2144
1481	3393	10.342602033144	1072
1481	4182	12.547189438764	1072
1481	4202	12.606556621603	1608
1481	4880	15.015089596852	1072
1481	5826	17.800156890164	1072
1481	6884	20.151083126927	1072
1481	6994	20.279665458665	1608
1481	7606	22.658410621052	1072
1481	8274	25.140630537432	1072
1481	8926	27.596729661551	1072
1481	9624	30.169269106724	1072
1481	9984	32.399549571825	1072
1481	10247	34.821913535569	1072
1481	10569	37.330962273629	1072
1481	10907	39.54124090762	1072
1481	11777	41.889982019105	1072
1481	11807	41.954851599717	1608
1481	12474	43.900812474989	1072
1481	12580	44.319273684502	1608
1481	13297	46.400419349348	1072
1481	13637	47.266845373942	1608
1481	13994	48.403681778011	1072
1481	14545	49.797006816857	1072
1481	14880	50.843062862639	1072
1481	15587	53.413362249216	1072
1481	16410	55.989313663749	1072
1481	16510	56.142696077393	1608
1481	17413	57.948202179634	1072
1481	17528	58.118145832817	1608
1481	17989	59.846609113439	1072
1481	18506	62.050964104741	1072
1481	18829	63.922587994631	1072
1481	19195	65.970907950684	1072
1481	19453	68.06371168615	1072
1481	19686	70.223051875975	1072
1481	19918	72.101664504535	1072
1482	1754	5.568350648275	4294967295
1482	2483	7.51200770104	4294967295
1482	2648	7.951379156469	4294967295
1482	3393	10.342602033144	4294967295
1482	4182	12.547189438764	4294967295
1482	4202	12.606556621603	4294967295
1482	4880	15.015089596852	4294967295
1482	5826	17.800156890164	4294967295
1482	6884	20.151083126927	4294967295
1482	6994	20.279665458665	4294967295
1482	7606	22.658410621052	4294967295
1482	8274	25.140630537432	4294967295
1482	8926	27.596729661551	4294967295
1482	9624	30.169269106724	4294967295
1482	9984	32.399549571825	4294967295
1482	10247	34.821913535569	4294967295
1482	10569	37.330962273629	4294967295
1482	10907	39.54124090762	4294967295
1482	11777	41.889982019105	4294967295
1482	11807	41.954851599717	4294967295
1482	12474	43.900812474989	4294967295
1482	12580	44.319273684502	4294967295
1482	13297	46.400419349348	4294967295
1482	13637	47.266845373942	4294967295
1482	13994	48.403681778011	4294967295
1482	14545	49.797006816857	4294967295
1482	14880	50.843062862639	4294967295
1482	15587	53.413362249216	4294967295
1482	16410	55.989313663749	4294967295
1482	16510	56.142696077393	4294967295
1482	17413	57.948202179634	4294967295
1482	17528	58.118145832817	4294967295
1482	17989	59.846609113439	4294967295
1482	18506	62.050964104741	4294967295
1482	18829	63.922587994631	4294967295
1482	19195	65.970907950684	4294967295
1482	19453	68.06371168615	4294967295
1482	19686	70.223051875975	4294967295
1482	19918	72.101664504535	4294967295
1483	1754	5.568350648275	0
1483	2483	7.51200770104	0
1483	2648	7.951379156469	0
1483	3393	10.342602033144	0
1483	4182	12.547189438764	0
1483	4202	12.606556621603	0
1483	4880	15.015089596852	0
1483	5826	17.800156890164	0
1483	6884	20.151083126927	0
1483	6994	20.279665458665	0
1483	7606	22.658410621052	0
1483	8274	25.140630537432	0
1483	8926	27.596729661551	0
1483	9624	30.169269106724	0
1483	9984	32.399549571825	0
1483	10247	34.821913535569	0
1483	10569	37.330962273629	0
1483	10907	39.54124090762	0
1483	11777	41.889982019105	0
1483	11807	41.954851599717	0
1483	12474	43.900812474989	0
1483	12580	44.319273684502	0
1483	13297	46.400419349348	0
1483	13637	47.266845373942	0
1483	13994	48.403681778011	0
1483	14545	49.797006816857	0
1483	14880	50.843062862639	0
1483	15587	53.413362249216	0
1483	16410	55.989313663749	0
1483	16510	56.142696077393	0
1483	17413	57.948202179634	0
1483	17528	58.118145832817	0
1483	17989	59.846609113439	0
1483	18506	62.050964104741	0
1483	18829	63.922587994631	0
1483	19195	65.970907950684	0
1483	19453	68.06371168615	0
1483	19686	70.223051875975	0
1483	19918	72.101664504535	0

