file 4803002 1644255011                                         
version 2
run BROADCAST6c-0-20220207-18:30:06-12036
attr configname BROADCAST6c
attr datetime 20220207-18:30:06
attr experiment BROADCAST6c
attr inifile omnetpp.ini
attr iterationvars ""
attr iterationvarsf ""
attr measurement ""
attr network scenario
attr processid 12036
attr repetition 0
attr replication #0
attr resultdir results
attr runnumber 0
attr seedset 0
param *.n 6
param **.client[*].app[0].nPar 6
param **.client[*].app[0].nNPar 1
param **.client[0].app[0].numMsg 4
param **.client[0].app[0].sendFrequency 2.5
param **.client[0].app[0].startSend 0.0
param **.client[5].app[0].join 2.0
param **.client[4].app[0].leave 0.5
param **.ppp[*].ppp.queue.typename "\"DropTailQueue\""
param **.tcp.typename "\"Tcp\""
param **.tcp.nagleEnabled false
param **.client[*].app[*].fPar 0
param **.numApps 1
param **.client[*].app[*].typename "\"Node\""
param **.client[*].app[0].localPort index+1000
param **.client[*].app[0].localPortL 1234
param **.client[*].app[0].connectAddress "\"\""
param **.client[*].app[0].connectPort 1234

vector 0 scenario.client[0].ppp[0].ppp transmissionState:vector ETV
attr interpolationmode sample-hold
attr source transmissionStateChanged
attr title "tx state, vector"
vector 1 scenario.client[0].ppp[1].ppp transmissionState:vector ETV
attr interpolationmode sample-hold
attr source transmissionStateChanged
attr title "tx state, vector"
vector 2 scenario.client[0].ppp[2].ppp transmissionState:vector ETV
attr interpolationmode sample-hold
attr source transmissionStateChanged
attr title "tx state, vector"
vector 3 scenario.client[0].ppp[3].ppp transmissionState:vector ETV
attr interpolationmode sample-hold
attr source transmissionStateChanged
attr title "tx state, vector"
vector 4 scenario.client[0].ppp[4].ppp transmissionState:vector ETV
attr interpolationmode sample-hold
attr source transmissionStateChanged
attr title "tx state, vector"
vector 5 scenario.client[1].ppp[0].ppp transmissionState:vector ETV
attr interpolationmode sample-hold
attr source transmissionStateChanged
attr title "tx state, vector"
vector 6 scenario.client[1].ppp[1].ppp transmissionState:vector ETV
attr interpolationmode sample-hold
attr source transmissionStateChanged
attr title "tx state, vector"
vector 7 scenario.client[1].ppp[2].ppp transmissionState:vector ETV
attr interpolationmode sample-hold
attr source transmissionStateChanged
attr title "tx state, vector"
vector 8 scenario.client[1].ppp[3].ppp transmissionState:vector ETV
attr interpolationmode sample-hold
attr source transmissionStateChanged
attr title "tx state, vector"
vector 9 scenario.client[1].ppp[4].ppp transmissionState:vector ETV
attr interpolationmode sample-hold
attr source transmissionStateChanged
attr title "tx state, vector"
vector 10 scenario.client[2].ppp[0].ppp transmissionState:vector ETV
attr interpolationmode sample-hold
attr source transmissionStateChanged
attr title "tx state, vector"
vector 11 scenario.client[2].ppp[1].ppp transmissionState:vector ETV
attr interpolationmode sample-hold
attr source transmissionStateChanged
attr title "tx state, vector"
vector 12 scenario.client[2].ppp[2].ppp transmissionState:vector ETV
attr interpolationmode sample-hold
attr source transmissionStateChanged
attr title "tx state, vector"
vector 13 scenario.client[2].ppp[3].ppp transmissionState:vector ETV
attr interpolationmode sample-hold
attr source transmissionStateChanged
attr title "tx state, vector"
vector 14 scenario.client[2].ppp[4].ppp transmissionState:vector ETV
attr interpolationmode sample-hold
attr source transmissionStateChanged
attr title "tx state, vector"
vector 15 scenario.client[3].ppp[0].ppp transmissionState:vector ETV
attr interpolationmode sample-hold
attr source transmissionStateChanged
attr title "tx state, vector"
vector 16 scenario.client[3].ppp[1].ppp transmissionState:vector ETV
attr interpolationmode sample-hold
attr source transmissionStateChanged
attr title "tx state, vector"
vector 17 scenario.client[3].ppp[2].ppp transmissionState:vector ETV
attr interpolationmode sample-hold
attr source transmissionStateChanged
attr title "tx state, vector"
vector 18 scenario.client[3].ppp[3].ppp transmissionState:vector ETV
attr interpolationmode sample-hold
attr source transmissionStateChanged
attr title "tx state, vector"
vector 19 scenario.client[3].ppp[4].ppp transmissionState:vector ETV
attr interpolationmode sample-hold
attr source transmissionStateChanged
attr title "tx state, vector"
vector 20 scenario.client[4].ppp[0].ppp transmissionState:vector ETV
attr interpolationmode sample-hold
attr source transmissionStateChanged
attr title "tx state, vector"
vector 21 scenario.client[4].ppp[1].ppp transmissionState:vector ETV
attr interpolationmode sample-hold
attr source transmissionStateChanged
attr title "tx state, vector"
vector 22 scenario.client[4].ppp[2].ppp transmissionState:vector ETV
attr interpolationmode sample-hold
attr source transmissionStateChanged
attr title "tx state, vector"
vector 23 scenario.client[4].ppp[3].ppp transmissionState:vector ETV
attr interpolationmode sample-hold
attr source transmissionStateChanged
attr title "tx state, vector"
vector 24 scenario.client[4].ppp[4].ppp transmissionState:vector ETV
attr interpolationmode sample-hold
attr source transmissionStateChanged
attr title "tx state, vector"
vector 25 scenario.client[5].ppp[0].ppp transmissionState:vector ETV
attr interpolationmode sample-hold
attr source transmissionStateChanged
attr title "tx state, vector"
vector 26 scenario.client[5].ppp[1].ppp transmissionState:vector ETV
attr interpolationmode sample-hold
attr source transmissionStateChanged
attr title "tx state, vector"
vector 27 scenario.client[5].ppp[2].ppp transmissionState:vector ETV
attr interpolationmode sample-hold
attr source transmissionStateChanged
attr title "tx state, vector"
vector 28 scenario.client[5].ppp[3].ppp transmissionState:vector ETV
attr interpolationmode sample-hold
attr source transmissionStateChanged
attr title "tx state, vector"
vector 29 scenario.client[5].ppp[4].ppp transmissionState:vector ETV
attr interpolationmode sample-hold
attr source transmissionStateChanged
attr title "tx state, vector"
vector 30 scenario.client[0].tcp.conn-36 tcpRcvQueueBytes:vector ETV
attr interpolationmode sample-hold
vector 31 scenario.client[0].tcp.conn-36 rcvAdv:vector ETV
attr interpolationmode sample-hold
vector 32 scenario.client[0].tcp.conn-36 rcvWnd:vector ETV
attr interpolationmode sample-hold
vector 33 scenario.client[0].tcp.conn-36 sndAck:vector ETV
attr interpolationmode sample-hold
vector 34 scenario.client[0].ppp[0].ppp rcvdPkFromHl:vector(packetBytes) ETV
attr interpolationmode none
attr source packetReceivedFromUpper
attr title "packets received from higher layer, vector(packetBytes)"
vector 35 scenario.client[0].ppp[0].ppp.queue packetPushed:vector(packetBytes) ETV
attr interpolationmode none
attr title "packet pushed, vector(packetBytes)"
vector 36 scenario.client[0].ppp[0].ppp.queue queueLength:vector ETV
attr interpolationmode sample-hold
attr source "count(packetPushed) - count(packetPopped) - count(packetRemoved) - count(packetDropped)"
attr title "queue length, vector"
vector 37 scenario.client[0].ppp[0].ppp.queue packetPopped:vector(packetBytes) ETV
attr interpolationmode none
attr title "packet popped, vector(packetBytes)"
vector 38 scenario.client[0].ppp[0].ppp.queue queueingTime:vector ETV
attr interpolationmode none
attr source queueingTime(packetPopped)
attr title "queueing times, vector"
attr unit s
vector 39 scenario.client[0].ppp[0].ppp txPk:vector(packetBytes) ETV
attr interpolationmode none
attr source packetSentToLower
attr title "packets transmitted, vector(packetBytes)"
vector 40 scenario.client[1].ppp[0].ppp rxPkOk:vector(packetBytes) ETV
attr interpolationmode none
attr source rxPkOk
attr title "packets received OK, vector(packetBytes)"
vector 41 scenario.client[1].ppp[0].ppp passedUpPk:vector(packetBytes) ETV
attr interpolationmode none
attr source packetSentToUpper
attr title "packets passed to higher layer, vector(packetBytes)"
vector 42 scenario.client[1].tcp.conn-1 rcvSeq:vector ETV
attr interpolationmode sample-hold
vector 43 scenario.client[1].tcp.conn-1 rcvAck:vector ETV
attr interpolationmode sample-hold
vector 44 scenario.client[1].tcp.conn-37 rcvAdv:vector ETV
attr interpolationmode sample-hold
vector 45 scenario.client[1].tcp.conn-37 sndWnd:vector ETV
attr interpolationmode sample-hold
vector 46 scenario.client[1].tcp.conn-37 tcpRcvQueueBytes:vector ETV
attr interpolationmode sample-hold
vector 47 scenario.client[1].tcp.conn-37 rcvWnd:vector ETV
attr interpolationmode sample-hold
vector 48 scenario.client[1].tcp.conn-37 sndAck:vector ETV
attr interpolationmode sample-hold
vector 49 scenario.client[1].ppp[0].ppp rcvdPkFromHl:vector(packetBytes) ETV
attr interpolationmode none
attr source packetReceivedFromUpper
attr title "packets received from higher layer, vector(packetBytes)"
vector 50 scenario.client[1].ppp[0].ppp.queue packetPushed:vector(packetBytes) ETV
attr interpolationmode none
attr title "packet pushed, vector(packetBytes)"
vector 51 scenario.client[1].ppp[0].ppp.queue queueLength:vector ETV
attr interpolationmode sample-hold
attr source "count(packetPushed) - count(packetPopped) - count(packetRemoved) - count(packetDropped)"
attr title "queue length, vector"
vector 52 scenario.client[1].ppp[0].ppp.queue packetPopped:vector(packetBytes) ETV
attr interpolationmode none
attr title "packet popped, vector(packetBytes)"
vector 53 scenario.client[1].ppp[0].ppp.queue queueingTime:vector ETV
attr interpolationmode none
attr source queueingTime(packetPopped)
attr title "queueing times, vector"
attr unit s
vector 54 scenario.client[1].ppp[0].ppp txPk:vector(packetBytes) ETV
attr interpolationmode none
attr source packetSentToLower
attr title "packets transmitted, vector(packetBytes)"
vector 55 scenario.client[0].ppp[0].ppp rxPkOk:vector(packetBytes) ETV
attr interpolationmode none
attr source rxPkOk
attr title "packets received OK, vector(packetBytes)"
vector 56 scenario.client[0].ppp[0].ppp passedUpPk:vector(packetBytes) ETV
attr interpolationmode none
attr source packetSentToUpper
attr title "packets passed to higher layer, vector(packetBytes)"
vector 57 scenario.client[0].tcp.conn-36 rcvSeq:vector ETV
attr interpolationmode sample-hold
vector 58 scenario.client[0].tcp.conn-36 rcvAck:vector ETV
attr interpolationmode sample-hold
vector 59 scenario.client[0].tcp.conn-36 sndWnd:vector ETV
attr interpolationmode sample-hold
vector 60 scenario.client[0].tcp.conn-36 unacked:vector ETV
attr interpolationmode sample-hold
vector 61 scenario.client[1].tcp.conn-37 rcvSeq:vector ETV
attr interpolationmode sample-hold
vector 62 scenario.client[1].tcp.conn-37 rcvAck:vector ETV
attr interpolationmode sample-hold
vector 63 scenario.client[1].tcp.conn-37 unacked:vector ETV
attr interpolationmode sample-hold
vector 64 scenario.client[1].tcp.conn-37 cwnd:vector ETV
attr interpolationmode sample-hold
vector 65 scenario.client[1].tcp.conn-37 ssthresh:vector ETV
attr interpolationmode sample-hold
vector 66 scenario.client[1].tcp.conn-37 dupAcks:vector ETV
attr interpolationmode sample-hold
vector 67 scenario.client[1].tcp.conn-38 tcpRcvQueueBytes:vector ETV
attr interpolationmode sample-hold
vector 68 scenario.client[1].tcp.conn-38 rcvAdv:vector ETV
attr interpolationmode sample-hold
vector 69 scenario.client[1].tcp.conn-38 rcvWnd:vector ETV
attr interpolationmode sample-hold
vector 70 scenario.client[1].tcp.conn-38 sndAck:vector ETV
attr interpolationmode sample-hold
vector 71 scenario.client[0].tcp.conn-36 rtt:vector ETV
attr interpolationmode sample-hold
vector 72 scenario.client[0].tcp.conn-36 srtt:vector ETV
attr interpolationmode sample-hold
vector 73 scenario.client[0].tcp.conn-36 rttvar:vector ETV
attr interpolationmode sample-hold
vector 74 scenario.client[0].tcp.conn-36 rto:vector ETV
attr interpolationmode sample-hold
vector 75 scenario.client[0].tcp.conn-36 cwnd:vector ETV
attr interpolationmode sample-hold
vector 76 scenario.client[0].tcp.conn-36 ssthresh:vector ETV
attr interpolationmode sample-hold
vector 77 scenario.client[0].tcp.conn-36 dupAcks:vector ETV
attr interpolationmode sample-hold
vector 78 scenario.client[0].tcp.conn-0 rcvSeq:vector ETV
attr interpolationmode sample-hold
vector 79 scenario.client[0].tcp.conn-0 rcvAck:vector ETV
attr interpolationmode sample-hold
vector 80 scenario.client[0].tcp.conn-39 rcvAdv:vector ETV
attr interpolationmode sample-hold
vector 81 scenario.client[0].tcp.conn-39 sndWnd:vector ETV
attr interpolationmode sample-hold
vector 82 scenario.client[0].tcp.conn-39 tcpRcvQueueBytes:vector ETV
attr interpolationmode sample-hold
vector 83 scenario.client[0].tcp.conn-39 rcvWnd:vector ETV
attr interpolationmode sample-hold
vector 84 scenario.client[0].tcp.conn-39 sndAck:vector ETV
attr interpolationmode sample-hold
vector 85 scenario.client[1].tcp.conn-38 rcvSeq:vector ETV
attr interpolationmode sample-hold
vector 86 scenario.client[1].tcp.conn-38 rcvAck:vector ETV
attr interpolationmode sample-hold
vector 87 scenario.client[1].tcp.conn-38 sndWnd:vector ETV
attr interpolationmode sample-hold
vector 88 scenario.client[1].tcp.conn-38 unacked:vector ETV
attr interpolationmode sample-hold
vector 89 scenario.client[0].tcp.conn-39 rcvSeq:vector ETV
attr interpolationmode sample-hold
vector 90 scenario.client[0].tcp.conn-39 rcvAck:vector ETV
attr interpolationmode sample-hold
vector 91 scenario.client[0].tcp.conn-39 unacked:vector ETV
attr interpolationmode sample-hold
vector 92 scenario.client[0].tcp.conn-39 cwnd:vector ETV
attr interpolationmode sample-hold
vector 93 scenario.client[0].tcp.conn-39 ssthresh:vector ETV
attr interpolationmode sample-hold
vector 94 scenario.client[0].tcp.conn-39 dupAcks:vector ETV
attr interpolationmode sample-hold
vector 95 scenario.client[1].tcp.conn-38 rtt:vector ETV
attr interpolationmode sample-hold
vector 96 scenario.client[1].tcp.conn-38 srtt:vector ETV
attr interpolationmode sample-hold
vector 97 scenario.client[1].tcp.conn-38 rttvar:vector ETV
attr interpolationmode sample-hold
vector 98 scenario.client[1].tcp.conn-38 rto:vector ETV
attr interpolationmode sample-hold
vector 99 scenario.client[1].tcp.conn-38 cwnd:vector ETV
attr interpolationmode sample-hold
vector 100 scenario.client[1].tcp.conn-38 ssthresh:vector ETV
attr interpolationmode sample-hold
vector 101 scenario.client[1].tcp.conn-38 dupAcks:vector ETV
attr interpolationmode sample-hold
vector 102 scenario.client[0].tcp.conn-40 tcpRcvQueueBytes:vector ETV
attr interpolationmode sample-hold
vector 103 scenario.client[0].tcp.conn-40 rcvAdv:vector ETV
attr interpolationmode sample-hold
vector 104 scenario.client[0].tcp.conn-40 rcvWnd:vector ETV
attr interpolationmode sample-hold
vector 105 scenario.client[0].tcp.conn-40 sndAck:vector ETV
attr interpolationmode sample-hold
vector 106 scenario.client[0].ppp[1].ppp rcvdPkFromHl:vector(packetBytes) ETV
attr interpolationmode none
attr source packetReceivedFromUpper
attr title "packets received from higher layer, vector(packetBytes)"
vector 107 scenario.client[0].ppp[1].ppp.queue packetPushed:vector(packetBytes) ETV
attr interpolationmode none
attr title "packet pushed, vector(packetBytes)"
vector 108 scenario.client[0].ppp[1].ppp.queue queueLength:vector ETV
attr interpolationmode sample-hold
attr source "count(packetPushed) - count(packetPopped) - count(packetRemoved) - count(packetDropped)"
attr title "queue length, vector"
vector 109 scenario.client[0].ppp[1].ppp.queue packetPopped:vector(packetBytes) ETV
attr interpolationmode none
attr title "packet popped, vector(packetBytes)"
vector 110 scenario.client[0].ppp[1].ppp.queue queueingTime:vector ETV
attr interpolationmode none
attr source queueingTime(packetPopped)
attr title "queueing times, vector"
attr unit s
vector 111 scenario.client[0].ppp[1].ppp txPk:vector(packetBytes) ETV
attr interpolationmode none
attr source packetSentToLower
attr title "packets transmitted, vector(packetBytes)"
vector 112 scenario.client[2].ppp[0].ppp rxPkOk:vector(packetBytes) ETV
attr interpolationmode none
attr source rxPkOk
attr title "packets received OK, vector(packetBytes)"
vector 113 scenario.client[2].ppp[0].ppp passedUpPk:vector(packetBytes) ETV
attr interpolationmode none
attr source packetSentToUpper
attr title "packets passed to higher layer, vector(packetBytes)"
vector 114 scenario.client[2].tcp.conn-2 rcvSeq:vector ETV
attr interpolationmode sample-hold
vector 115 scenario.client[2].tcp.conn-2 rcvAck:vector ETV
attr interpolationmode sample-hold
vector 116 scenario.client[2].tcp.conn-41 rcvAdv:vector ETV
attr interpolationmode sample-hold
vector 117 scenario.client[2].tcp.conn-41 sndWnd:vector ETV
attr interpolationmode sample-hold
vector 118 scenario.client[2].tcp.conn-41 tcpRcvQueueBytes:vector ETV
attr interpolationmode sample-hold
vector 119 scenario.client[2].tcp.conn-41 rcvWnd:vector ETV
attr interpolationmode sample-hold
vector 120 scenario.client[2].tcp.conn-41 sndAck:vector ETV
attr interpolationmode sample-hold
vector 121 scenario.client[2].ppp[0].ppp rcvdPkFromHl:vector(packetBytes) ETV
attr interpolationmode none
attr source packetReceivedFromUpper
attr title "packets received from higher layer, vector(packetBytes)"
vector 122 scenario.client[2].ppp[0].ppp.queue packetPushed:vector(packetBytes) ETV
attr interpolationmode none
attr title "packet pushed, vector(packetBytes)"
vector 123 scenario.client[2].ppp[0].ppp.queue queueLength:vector ETV
attr interpolationmode sample-hold
attr source "count(packetPushed) - count(packetPopped) - count(packetRemoved) - count(packetDropped)"
attr title "queue length, vector"
vector 124 scenario.client[2].ppp[0].ppp.queue packetPopped:vector(packetBytes) ETV
attr interpolationmode none
attr title "packet popped, vector(packetBytes)"
vector 125 scenario.client[2].ppp[0].ppp.queue queueingTime:vector ETV
attr interpolationmode none
attr source queueingTime(packetPopped)
attr title "queueing times, vector"
attr unit s
vector 126 scenario.client[2].ppp[0].ppp txPk:vector(packetBytes) ETV
attr interpolationmode none
attr source packetSentToLower
attr title "packets transmitted, vector(packetBytes)"
vector 127 scenario.client[0].ppp[1].ppp rxPkOk:vector(packetBytes) ETV
attr interpolationmode none
attr source rxPkOk
attr title "packets received OK, vector(packetBytes)"
vector 128 scenario.client[0].ppp[1].ppp passedUpPk:vector(packetBytes) ETV
attr interpolationmode none
attr source packetSentToUpper
attr title "packets passed to higher layer, vector(packetBytes)"
vector 129 scenario.client[0].tcp.conn-40 rcvSeq:vector ETV
attr interpolationmode sample-hold
vector 130 scenario.client[0].tcp.conn-40 rcvAck:vector ETV
attr interpolationmode sample-hold
vector 131 scenario.client[0].tcp.conn-40 sndWnd:vector ETV
attr interpolationmode sample-hold
vector 132 scenario.client[0].tcp.conn-40 unacked:vector ETV
attr interpolationmode sample-hold
vector 133 scenario.client[2].tcp.conn-41 rcvSeq:vector ETV
attr interpolationmode sample-hold
vector 134 scenario.client[2].tcp.conn-41 rcvAck:vector ETV
attr interpolationmode sample-hold
vector 135 scenario.client[2].tcp.conn-41 unacked:vector ETV
attr interpolationmode sample-hold
vector 136 scenario.client[2].tcp.conn-41 cwnd:vector ETV
attr interpolationmode sample-hold
vector 137 scenario.client[2].tcp.conn-41 ssthresh:vector ETV
attr interpolationmode sample-hold
vector 138 scenario.client[2].tcp.conn-41 dupAcks:vector ETV
attr interpolationmode sample-hold
vector 139 scenario.client[2].tcp.conn-42 tcpRcvQueueBytes:vector ETV
attr interpolationmode sample-hold
vector 140 scenario.client[2].tcp.conn-42 rcvAdv:vector ETV
attr interpolationmode sample-hold
vector 141 scenario.client[2].tcp.conn-42 rcvWnd:vector ETV
attr interpolationmode sample-hold
vector 142 scenario.client[2].tcp.conn-42 sndAck:vector ETV
attr interpolationmode sample-hold
vector 143 scenario.client[0].tcp.conn-40 rtt:vector ETV
attr interpolationmode sample-hold
vector 144 scenario.client[0].tcp.conn-40 srtt:vector ETV
attr interpolationmode sample-hold
vector 145 scenario.client[0].tcp.conn-40 rttvar:vector ETV
attr interpolationmode sample-hold
vector 146 scenario.client[0].tcp.conn-40 rto:vector ETV
attr interpolationmode sample-hold
vector 147 scenario.client[0].tcp.conn-40 cwnd:vector ETV
attr interpolationmode sample-hold
vector 148 scenario.client[0].tcp.conn-40 ssthresh:vector ETV
attr interpolationmode sample-hold
vector 149 scenario.client[0].tcp.conn-40 dupAcks:vector ETV
attr interpolationmode sample-hold
vector 150 scenario.client[0].tcp.conn-43 rcvAdv:vector ETV
attr interpolationmode sample-hold
vector 151 scenario.client[0].tcp.conn-43 sndWnd:vector ETV
attr interpolationmode sample-hold
vector 152 scenario.client[0].tcp.conn-43 tcpRcvQueueBytes:vector ETV
attr interpolationmode sample-hold
vector 153 scenario.client[0].tcp.conn-43 rcvWnd:vector ETV
attr interpolationmode sample-hold
vector 154 scenario.client[0].tcp.conn-43 sndAck:vector ETV
attr interpolationmode sample-hold
vector 155 scenario.client[2].tcp.conn-42 rcvSeq:vector ETV
attr interpolationmode sample-hold
vector 156 scenario.client[2].tcp.conn-42 rcvAck:vector ETV
attr interpolationmode sample-hold
vector 157 scenario.client[2].tcp.conn-42 sndWnd:vector ETV
attr interpolationmode sample-hold
vector 158 scenario.client[2].tcp.conn-42 unacked:vector ETV
attr interpolationmode sample-hold
vector 159 scenario.client[0].tcp.conn-43 rcvSeq:vector ETV
attr interpolationmode sample-hold
vector 160 scenario.client[0].tcp.conn-43 rcvAck:vector ETV
attr interpolationmode sample-hold
vector 161 scenario.client[0].tcp.conn-43 unacked:vector ETV
attr interpolationmode sample-hold
vector 162 scenario.client[0].tcp.conn-43 cwnd:vector ETV
attr interpolationmode sample-hold
vector 163 scenario.client[0].tcp.conn-43 ssthresh:vector ETV
attr interpolationmode sample-hold
vector 164 scenario.client[0].tcp.conn-43 dupAcks:vector ETV
attr interpolationmode sample-hold
vector 165 scenario.client[2].tcp.conn-42 rtt:vector ETV
attr interpolationmode sample-hold
vector 166 scenario.client[2].tcp.conn-42 srtt:vector ETV
attr interpolationmode sample-hold
vector 167 scenario.client[2].tcp.conn-42 rttvar:vector ETV
attr interpolationmode sample-hold
vector 168 scenario.client[2].tcp.conn-42 rto:vector ETV
attr interpolationmode sample-hold
vector 169 scenario.client[2].tcp.conn-42 cwnd:vector ETV
attr interpolationmode sample-hold
vector 170 scenario.client[2].tcp.conn-42 ssthresh:vector ETV
attr interpolationmode sample-hold
vector 171 scenario.client[2].tcp.conn-42 dupAcks:vector ETV
attr interpolationmode sample-hold
vector 172 scenario.client[4].tcp.conn-44 tcpRcvQueueBytes:vector ETV
attr interpolationmode sample-hold
vector 173 scenario.client[4].tcp.conn-44 rcvAdv:vector ETV
attr interpolationmode sample-hold
vector 174 scenario.client[4].tcp.conn-44 rcvWnd:vector ETV
attr interpolationmode sample-hold
vector 175 scenario.client[4].tcp.conn-44 sndAck:vector ETV
attr interpolationmode sample-hold
vector 176 scenario.client[4].ppp[0].ppp rcvdPkFromHl:vector(packetBytes) ETV
attr interpolationmode none
attr source packetReceivedFromUpper
attr title "packets received from higher layer, vector(packetBytes)"
vector 177 scenario.client[4].ppp[0].ppp.queue packetPushed:vector(packetBytes) ETV
attr interpolationmode none
attr title "packet pushed, vector(packetBytes)"
vector 178 scenario.client[4].ppp[0].ppp.queue queueLength:vector ETV
attr interpolationmode sample-hold
attr source "count(packetPushed) - count(packetPopped) - count(packetRemoved) - count(packetDropped)"
attr title "queue length, vector"
vector 179 scenario.client[4].ppp[0].ppp.queue packetPopped:vector(packetBytes) ETV
attr interpolationmode none
attr title "packet popped, vector(packetBytes)"
vector 180 scenario.client[4].ppp[0].ppp.queue queueingTime:vector ETV
attr interpolationmode none
attr source queueingTime(packetPopped)
attr title "queueing times, vector"
attr unit s
vector 181 scenario.client[4].ppp[0].ppp txPk:vector(packetBytes) ETV
attr interpolationmode none
attr source packetSentToLower
attr title "packets transmitted, vector(packetBytes)"
vector 182 scenario.client[0].ppp[3].ppp rxPkOk:vector(packetBytes) ETV
attr interpolationmode none
attr source rxPkOk
attr title "packets received OK, vector(packetBytes)"
vector 183 scenario.client[0].ppp[3].ppp passedUpPk:vector(packetBytes) ETV
attr interpolationmode none
attr source packetSentToUpper
attr title "packets passed to higher layer, vector(packetBytes)"
vector 184 scenario.client[0].tcp.conn-45 rcvAdv:vector ETV
attr interpolationmode sample-hold
vector 185 scenario.client[0].tcp.conn-45 sndWnd:vector ETV
attr interpolationmode sample-hold
vector 186 scenario.client[0].tcp.conn-45 tcpRcvQueueBytes:vector ETV
attr interpolationmode sample-hold
vector 187 scenario.client[0].tcp.conn-45 rcvWnd:vector ETV
attr interpolationmode sample-hold
vector 188 scenario.client[0].tcp.conn-45 sndAck:vector ETV
attr interpolationmode sample-hold
vector 189 scenario.client[0].ppp[3].ppp rcvdPkFromHl:vector(packetBytes) ETV
attr interpolationmode none
attr source packetReceivedFromUpper
attr title "packets received from higher layer, vector(packetBytes)"
vector 190 scenario.client[0].ppp[3].ppp.queue packetPushed:vector(packetBytes) ETV
attr interpolationmode none
attr title "packet pushed, vector(packetBytes)"
vector 191 scenario.client[0].ppp[3].ppp.queue queueLength:vector ETV
attr interpolationmode sample-hold
attr source "count(packetPushed) - count(packetPopped) - count(packetRemoved) - count(packetDropped)"
attr title "queue length, vector"
vector 192 scenario.client[0].ppp[3].ppp.queue packetPopped:vector(packetBytes) ETV
attr interpolationmode none
attr title "packet popped, vector(packetBytes)"
vector 193 scenario.client[0].ppp[3].ppp.queue queueingTime:vector ETV
attr interpolationmode none
attr source queueingTime(packetPopped)
attr title "queueing times, vector"
attr unit s
vector 194 scenario.client[0].ppp[3].ppp txPk:vector(packetBytes) ETV
attr interpolationmode none
attr source packetSentToLower
attr title "packets transmitted, vector(packetBytes)"
vector 195 scenario.client[4].ppp[0].ppp rxPkOk:vector(packetBytes) ETV
attr interpolationmode none
attr source rxPkOk
attr title "packets received OK, vector(packetBytes)"
vector 196 scenario.client[4].ppp[0].ppp passedUpPk:vector(packetBytes) ETV
attr interpolationmode none
attr source packetSentToUpper
attr title "packets passed to higher layer, vector(packetBytes)"
vector 197 scenario.client[4].tcp.conn-44 rcvSeq:vector ETV
attr interpolationmode sample-hold
vector 198 scenario.client[4].tcp.conn-44 rcvAck:vector ETV
attr interpolationmode sample-hold
vector 199 scenario.client[4].tcp.conn-44 sndWnd:vector ETV
attr interpolationmode sample-hold
vector 200 scenario.client[4].tcp.conn-44 unacked:vector ETV
attr interpolationmode sample-hold
vector 201 scenario.client[0].tcp.conn-45 rcvSeq:vector ETV
attr interpolationmode sample-hold
vector 202 scenario.client[0].tcp.conn-45 rcvAck:vector ETV
attr interpolationmode sample-hold
vector 203 scenario.client[0].tcp.conn-45 unacked:vector ETV
attr interpolationmode sample-hold
vector 204 scenario.client[0].tcp.conn-45 cwnd:vector ETV
attr interpolationmode sample-hold
vector 205 scenario.client[0].tcp.conn-45 ssthresh:vector ETV
attr interpolationmode sample-hold
vector 206 scenario.client[0].tcp.conn-45 dupAcks:vector ETV
attr interpolationmode sample-hold
vector 207 scenario.client[4].tcp.conn-44 rtt:vector ETV
attr interpolationmode sample-hold
vector 208 scenario.client[4].tcp.conn-44 srtt:vector ETV
attr interpolationmode sample-hold
vector 209 scenario.client[4].tcp.conn-44 rttvar:vector ETV
attr interpolationmode sample-hold
vector 210 scenario.client[4].tcp.conn-44 rto:vector ETV
attr interpolationmode sample-hold
vector 211 scenario.client[4].tcp.conn-44 cwnd:vector ETV
attr interpolationmode sample-hold
vector 212 scenario.client[4].tcp.conn-44 ssthresh:vector ETV
attr interpolationmode sample-hold
vector 213 scenario.client[4].tcp.conn-44 dupAcks:vector ETV
attr interpolationmode sample-hold
vector 214 scenario.client[0].tcp.conn-46 tcpRcvQueueBytes:vector ETV
attr interpolationmode sample-hold
vector 215 scenario.client[0].tcp.conn-46 rcvAdv:vector ETV
attr interpolationmode sample-hold
vector 216 scenario.client[0].tcp.conn-46 rcvWnd:vector ETV
attr interpolationmode sample-hold
vector 217 scenario.client[0].tcp.conn-46 sndAck:vector ETV
attr interpolationmode sample-hold
vector 218 scenario.client[0].ppp[2].ppp rcvdPkFromHl:vector(packetBytes) ETV
attr interpolationmode none
attr source packetReceivedFromUpper
attr title "packets received from higher layer, vector(packetBytes)"
vector 219 scenario.client[0].ppp[2].ppp.queue packetPushed:vector(packetBytes) ETV
attr interpolationmode none
attr title "packet pushed, vector(packetBytes)"
vector 220 scenario.client[0].ppp[2].ppp.queue queueLength:vector ETV
attr interpolationmode sample-hold
attr source "count(packetPushed) - count(packetPopped) - count(packetRemoved) - count(packetDropped)"
attr title "queue length, vector"
vector 221 scenario.client[0].ppp[2].ppp.queue packetPopped:vector(packetBytes) ETV
attr interpolationmode none
attr title "packet popped, vector(packetBytes)"
vector 222 scenario.client[0].ppp[2].ppp.queue queueingTime:vector ETV
attr interpolationmode none
attr source queueingTime(packetPopped)
attr title "queueing times, vector"
attr unit s
vector 223 scenario.client[0].ppp[2].ppp txPk:vector(packetBytes) ETV
attr interpolationmode none
attr source packetSentToLower
attr title "packets transmitted, vector(packetBytes)"
vector 224 scenario.client[3].ppp[0].ppp rxPkOk:vector(packetBytes) ETV
attr interpolationmode none
attr source rxPkOk
attr title "packets received OK, vector(packetBytes)"
vector 225 scenario.client[3].ppp[0].ppp passedUpPk:vector(packetBytes) ETV
attr interpolationmode none
attr source packetSentToUpper
attr title "packets passed to higher layer, vector(packetBytes)"
vector 226 scenario.client[3].tcp.conn-3 rcvSeq:vector ETV
attr interpolationmode sample-hold
vector 227 scenario.client[3].tcp.conn-3 rcvAck:vector ETV
attr interpolationmode sample-hold
vector 228 scenario.client[3].tcp.conn-47 rcvAdv:vector ETV
attr interpolationmode sample-hold
vector 229 scenario.client[3].tcp.conn-47 sndWnd:vector ETV
attr interpolationmode sample-hold
vector 230 scenario.client[3].tcp.conn-47 tcpRcvQueueBytes:vector ETV
attr interpolationmode sample-hold
vector 231 scenario.client[3].tcp.conn-47 rcvWnd:vector ETV
attr interpolationmode sample-hold
vector 232 scenario.client[3].tcp.conn-47 sndAck:vector ETV
attr interpolationmode sample-hold
vector 233 scenario.client[3].ppp[0].ppp rcvdPkFromHl:vector(packetBytes) ETV
attr interpolationmode none
attr source packetReceivedFromUpper
attr title "packets received from higher layer, vector(packetBytes)"
vector 234 scenario.client[3].ppp[0].ppp.queue packetPushed:vector(packetBytes) ETV
attr interpolationmode none
attr title "packet pushed, vector(packetBytes)"
vector 235 scenario.client[3].ppp[0].ppp.queue queueLength:vector ETV
attr interpolationmode sample-hold
attr source "count(packetPushed) - count(packetPopped) - count(packetRemoved) - count(packetDropped)"
attr title "queue length, vector"
vector 236 scenario.client[3].ppp[0].ppp.queue packetPopped:vector(packetBytes) ETV
attr interpolationmode none
attr title "packet popped, vector(packetBytes)"
vector 237 scenario.client[3].ppp[0].ppp.queue queueingTime:vector ETV
attr interpolationmode none
attr source queueingTime(packetPopped)
attr title "queueing times, vector"
attr unit s
vector 238 scenario.client[3].ppp[0].ppp txPk:vector(packetBytes) ETV
attr interpolationmode none
attr source packetSentToLower
attr title "packets transmitted, vector(packetBytes)"
vector 239 scenario.client[0].ppp[2].ppp rxPkOk:vector(packetBytes) ETV
attr interpolationmode none
attr source rxPkOk
attr title "packets received OK, vector(packetBytes)"
vector 240 scenario.client[0].ppp[2].ppp passedUpPk:vector(packetBytes) ETV
attr interpolationmode none
attr source packetSentToUpper
attr title "packets passed to higher layer, vector(packetBytes)"
vector 241 scenario.client[0].tcp.conn-46 rcvSeq:vector ETV
attr interpolationmode sample-hold
vector 242 scenario.client[0].tcp.conn-46 rcvAck:vector ETV
attr interpolationmode sample-hold
vector 243 scenario.client[0].tcp.conn-46 sndWnd:vector ETV
attr interpolationmode sample-hold
vector 244 scenario.client[0].tcp.conn-46 unacked:vector ETV
attr interpolationmode sample-hold
vector 245 scenario.client[3].tcp.conn-47 rcvSeq:vector ETV
attr interpolationmode sample-hold
vector 246 scenario.client[3].tcp.conn-47 rcvAck:vector ETV
attr interpolationmode sample-hold
vector 247 scenario.client[3].tcp.conn-47 unacked:vector ETV
attr interpolationmode sample-hold
vector 248 scenario.client[3].tcp.conn-47 cwnd:vector ETV
attr interpolationmode sample-hold
vector 249 scenario.client[3].tcp.conn-47 ssthresh:vector ETV
attr interpolationmode sample-hold
vector 250 scenario.client[3].tcp.conn-47 dupAcks:vector ETV
attr interpolationmode sample-hold
vector 251 scenario.client[3].tcp.conn-48 tcpRcvQueueBytes:vector ETV
attr interpolationmode sample-hold
vector 252 scenario.client[3].tcp.conn-48 rcvAdv:vector ETV
attr interpolationmode sample-hold
vector 253 scenario.client[3].tcp.conn-48 rcvWnd:vector ETV
attr interpolationmode sample-hold
vector 254 scenario.client[3].tcp.conn-48 sndAck:vector ETV
attr interpolationmode sample-hold
vector 255 scenario.client[0].tcp.conn-46 rtt:vector ETV
attr interpolationmode sample-hold
vector 256 scenario.client[0].tcp.conn-46 srtt:vector ETV
attr interpolationmode sample-hold
vector 257 scenario.client[0].tcp.conn-46 rttvar:vector ETV
attr interpolationmode sample-hold
vector 258 scenario.client[0].tcp.conn-46 rto:vector ETV
attr interpolationmode sample-hold
vector 259 scenario.client[0].tcp.conn-46 cwnd:vector ETV
attr interpolationmode sample-hold
vector 260 scenario.client[0].tcp.conn-46 ssthresh:vector ETV
attr interpolationmode sample-hold
vector 261 scenario.client[0].tcp.conn-46 dupAcks:vector ETV
attr interpolationmode sample-hold
vector 262 scenario.client[0].tcp.conn-49 rcvAdv:vector ETV
attr interpolationmode sample-hold
vector 263 scenario.client[0].tcp.conn-49 sndWnd:vector ETV
attr interpolationmode sample-hold
vector 264 scenario.client[0].tcp.conn-49 tcpRcvQueueBytes:vector ETV
attr interpolationmode sample-hold
vector 265 scenario.client[0].tcp.conn-49 rcvWnd:vector ETV
attr interpolationmode sample-hold
vector 266 scenario.client[0].tcp.conn-49 sndAck:vector ETV
attr interpolationmode sample-hold
vector 267 scenario.client[3].tcp.conn-48 rcvSeq:vector ETV
attr interpolationmode sample-hold
vector 268 scenario.client[3].tcp.conn-48 rcvAck:vector ETV
attr interpolationmode sample-hold
vector 269 scenario.client[3].tcp.conn-48 sndWnd:vector ETV
attr interpolationmode sample-hold
vector 270 scenario.client[3].tcp.conn-48 unacked:vector ETV
attr interpolationmode sample-hold
vector 271 scenario.client[0].tcp.conn-49 rcvSeq:vector ETV
attr interpolationmode sample-hold
vector 272 scenario.client[0].tcp.conn-49 rcvAck:vector ETV
attr interpolationmode sample-hold
vector 273 scenario.client[0].tcp.conn-49 unacked:vector ETV
attr interpolationmode sample-hold
vector 274 scenario.client[0].tcp.conn-49 cwnd:vector ETV
attr interpolationmode sample-hold
vector 275 scenario.client[0].tcp.conn-49 ssthresh:vector ETV
attr interpolationmode sample-hold
vector 276 scenario.client[0].tcp.conn-49 dupAcks:vector ETV
attr interpolationmode sample-hold
vector 277 scenario.client[3].tcp.conn-48 rtt:vector ETV
attr interpolationmode sample-hold
vector 278 scenario.client[3].tcp.conn-48 srtt:vector ETV
attr interpolationmode sample-hold
vector 279 scenario.client[3].tcp.conn-48 rttvar:vector ETV
attr interpolationmode sample-hold
vector 280 scenario.client[3].tcp.conn-48 rto:vector ETV
attr interpolationmode sample-hold
vector 281 scenario.client[3].tcp.conn-48 cwnd:vector ETV
attr interpolationmode sample-hold
vector 282 scenario.client[3].tcp.conn-48 ssthresh:vector ETV
attr interpolationmode sample-hold
vector 283 scenario.client[3].tcp.conn-48 dupAcks:vector ETV
attr interpolationmode sample-hold
vector 284 scenario.client[4].tcp.conn-50 tcpRcvQueueBytes:vector ETV
attr interpolationmode sample-hold
vector 285 scenario.client[4].tcp.conn-50 rcvAdv:vector ETV
attr interpolationmode sample-hold
vector 286 scenario.client[4].tcp.conn-50 rcvWnd:vector ETV
attr interpolationmode sample-hold
vector 287 scenario.client[4].tcp.conn-50 sndAck:vector ETV
attr interpolationmode sample-hold
vector 288 scenario.client[4].ppp[1].ppp rcvdPkFromHl:vector(packetBytes) ETV
attr interpolationmode none
attr source packetReceivedFromUpper
attr title "packets received from higher layer, vector(packetBytes)"
vector 289 scenario.client[4].ppp[1].ppp.queue packetPushed:vector(packetBytes) ETV
attr interpolationmode none
attr title "packet pushed, vector(packetBytes)"
vector 290 scenario.client[4].ppp[1].ppp.queue queueLength:vector ETV
attr interpolationmode sample-hold
attr source "count(packetPushed) - count(packetPopped) - count(packetRemoved) - count(packetDropped)"
attr title "queue length, vector"
vector 291 scenario.client[4].ppp[1].ppp.queue packetPopped:vector(packetBytes) ETV
attr interpolationmode none
attr title "packet popped, vector(packetBytes)"
vector 292 scenario.client[4].ppp[1].ppp.queue queueingTime:vector ETV
attr interpolationmode none
attr source queueingTime(packetPopped)
attr title "queueing times, vector"
attr unit s
vector 293 scenario.client[4].ppp[1].ppp txPk:vector(packetBytes) ETV
attr interpolationmode none
attr source packetSentToLower
attr title "packets transmitted, vector(packetBytes)"
vector 294 scenario.client[1].ppp[3].ppp rxPkOk:vector(packetBytes) ETV
attr interpolationmode none
attr source rxPkOk
attr title "packets received OK, vector(packetBytes)"
vector 295 scenario.client[1].ppp[3].ppp passedUpPk:vector(packetBytes) ETV
attr interpolationmode none
attr source packetSentToUpper
attr title "packets passed to higher layer, vector(packetBytes)"
vector 296 scenario.client[1].tcp.conn-51 rcvAdv:vector ETV
attr interpolationmode sample-hold
vector 297 scenario.client[1].tcp.conn-51 sndWnd:vector ETV
attr interpolationmode sample-hold
vector 298 scenario.client[1].tcp.conn-51 tcpRcvQueueBytes:vector ETV
attr interpolationmode sample-hold
vector 299 scenario.client[1].tcp.conn-51 rcvWnd:vector ETV
attr interpolationmode sample-hold
vector 300 scenario.client[1].tcp.conn-51 sndAck:vector ETV
attr interpolationmode sample-hold
vector 301 scenario.client[1].ppp[3].ppp rcvdPkFromHl:vector(packetBytes) ETV
attr interpolationmode none
attr source packetReceivedFromUpper
attr title "packets received from higher layer, vector(packetBytes)"
vector 302 scenario.client[1].ppp[3].ppp.queue packetPushed:vector(packetBytes) ETV
attr interpolationmode none
attr title "packet pushed, vector(packetBytes)"
vector 303 scenario.client[1].ppp[3].ppp.queue queueLength:vector ETV
attr interpolationmode sample-hold
attr source "count(packetPushed) - count(packetPopped) - count(packetRemoved) - count(packetDropped)"
attr title "queue length, vector"
vector 304 scenario.client[1].ppp[3].ppp.queue packetPopped:vector(packetBytes) ETV
attr interpolationmode none
attr title "packet popped, vector(packetBytes)"
vector 305 scenario.client[1].ppp[3].ppp.queue queueingTime:vector ETV
attr interpolationmode none
attr source queueingTime(packetPopped)
attr title "queueing times, vector"
attr unit s
vector 306 scenario.client[1].ppp[3].ppp txPk:vector(packetBytes) ETV
attr interpolationmode none
attr source packetSentToLower
attr title "packets transmitted, vector(packetBytes)"
vector 307 scenario.client[4].ppp[1].ppp rxPkOk:vector(packetBytes) ETV
attr interpolationmode none
attr source rxPkOk
attr title "packets received OK, vector(packetBytes)"
vector 308 scenario.client[4].ppp[1].ppp passedUpPk:vector(packetBytes) ETV
attr interpolationmode none
attr source packetSentToUpper
attr title "packets passed to higher layer, vector(packetBytes)"
vector 309 scenario.client[4].tcp.conn-50 rcvSeq:vector ETV
attr interpolationmode sample-hold
vector 310 scenario.client[4].tcp.conn-50 rcvAck:vector ETV
attr interpolationmode sample-hold
vector 311 scenario.client[4].tcp.conn-50 sndWnd:vector ETV
attr interpolationmode sample-hold
vector 312 scenario.client[4].tcp.conn-50 unacked:vector ETV
attr interpolationmode sample-hold
vector 313 scenario.client[1].tcp.conn-51 rcvSeq:vector ETV
attr interpolationmode sample-hold
vector 314 scenario.client[1].tcp.conn-51 rcvAck:vector ETV
attr interpolationmode sample-hold
vector 315 scenario.client[1].tcp.conn-51 unacked:vector ETV
attr interpolationmode sample-hold
vector 316 scenario.client[1].tcp.conn-51 cwnd:vector ETV
attr interpolationmode sample-hold
vector 317 scenario.client[1].tcp.conn-51 ssthresh:vector ETV
attr interpolationmode sample-hold
vector 318 scenario.client[1].tcp.conn-51 dupAcks:vector ETV
attr interpolationmode sample-hold
vector 319 scenario.client[4].tcp.conn-50 rtt:vector ETV
attr interpolationmode sample-hold
vector 320 scenario.client[4].tcp.conn-50 srtt:vector ETV
attr interpolationmode sample-hold
vector 321 scenario.client[4].tcp.conn-50 rttvar:vector ETV
attr interpolationmode sample-hold
vector 322 scenario.client[4].tcp.conn-50 rto:vector ETV
attr interpolationmode sample-hold
vector 323 scenario.client[4].tcp.conn-50 cwnd:vector ETV
attr interpolationmode sample-hold
vector 324 scenario.client[4].tcp.conn-50 ssthresh:vector ETV
attr interpolationmode sample-hold
vector 325 scenario.client[4].tcp.conn-50 dupAcks:vector ETV
attr interpolationmode sample-hold
vector 326 scenario.client[0].tcp.conn-52 tcpRcvQueueBytes:vector ETV
attr interpolationmode sample-hold
vector 327 scenario.client[0].tcp.conn-52 rcvAdv:vector ETV
attr interpolationmode sample-hold
vector 328 scenario.client[0].tcp.conn-52 rcvWnd:vector ETV
attr interpolationmode sample-hold
vector 329 scenario.client[0].tcp.conn-52 sndAck:vector ETV
attr interpolationmode sample-hold
vector 330 scenario.client[4].tcp.conn-4 rcvSeq:vector ETV
attr interpolationmode sample-hold
vector 331 scenario.client[4].tcp.conn-4 rcvAck:vector ETV
attr interpolationmode sample-hold
vector 332 scenario.client[4].tcp.conn-53 rcvAdv:vector ETV
attr interpolationmode sample-hold
vector 333 scenario.client[4].tcp.conn-53 sndWnd:vector ETV
attr interpolationmode sample-hold
vector 334 scenario.client[4].tcp.conn-53 tcpRcvQueueBytes:vector ETV
attr interpolationmode sample-hold
vector 335 scenario.client[4].tcp.conn-53 rcvWnd:vector ETV
attr interpolationmode sample-hold
vector 336 scenario.client[4].tcp.conn-53 sndAck:vector ETV
attr interpolationmode sample-hold
vector 337 scenario.client[0].tcp.conn-52 rcvSeq:vector ETV
attr interpolationmode sample-hold
vector 338 scenario.client[0].tcp.conn-52 rcvAck:vector ETV
attr interpolationmode sample-hold
vector 339 scenario.client[0].tcp.conn-52 sndWnd:vector ETV
attr interpolationmode sample-hold
vector 340 scenario.client[0].tcp.conn-52 unacked:vector ETV
attr interpolationmode sample-hold
vector 341 scenario.client[4].tcp.conn-53 rcvSeq:vector ETV
attr interpolationmode sample-hold
vector 342 scenario.client[4].tcp.conn-53 rcvAck:vector ETV
attr interpolationmode sample-hold
vector 343 scenario.client[4].tcp.conn-53 unacked:vector ETV
attr interpolationmode sample-hold
vector 344 scenario.client[4].tcp.conn-53 cwnd:vector ETV
attr interpolationmode sample-hold
vector 345 scenario.client[4].tcp.conn-53 ssthresh:vector ETV
attr interpolationmode sample-hold
vector 346 scenario.client[4].tcp.conn-53 dupAcks:vector ETV
attr interpolationmode sample-hold
vector 347 scenario.client[0].tcp.conn-52 rtt:vector ETV
attr interpolationmode sample-hold
vector 348 scenario.client[0].tcp.conn-52 srtt:vector ETV
attr interpolationmode sample-hold
vector 349 scenario.client[0].tcp.conn-52 rttvar:vector ETV
attr interpolationmode sample-hold
vector 350 scenario.client[0].tcp.conn-52 rto:vector ETV
attr interpolationmode sample-hold
vector 351 scenario.client[0].tcp.conn-52 cwnd:vector ETV
attr interpolationmode sample-hold
vector 352 scenario.client[0].tcp.conn-52 ssthresh:vector ETV
attr interpolationmode sample-hold
vector 353 scenario.client[0].tcp.conn-52 dupAcks:vector ETV
attr interpolationmode sample-hold
vector 354 scenario.client[4].tcp.conn-54 tcpRcvQueueBytes:vector ETV
attr interpolationmode sample-hold
vector 355 scenario.client[4].tcp.conn-54 rcvAdv:vector ETV
attr interpolationmode sample-hold
vector 356 scenario.client[4].tcp.conn-54 rcvWnd:vector ETV
attr interpolationmode sample-hold
vector 357 scenario.client[4].tcp.conn-54 sndAck:vector ETV
attr interpolationmode sample-hold
vector 358 scenario.client[4].ppp[2].ppp rcvdPkFromHl:vector(packetBytes) ETV
attr interpolationmode none
attr source packetReceivedFromUpper
attr title "packets received from higher layer, vector(packetBytes)"
vector 359 scenario.client[4].ppp[2].ppp.queue packetPushed:vector(packetBytes) ETV
attr interpolationmode none
attr title "packet pushed, vector(packetBytes)"
vector 360 scenario.client[4].ppp[2].ppp.queue queueLength:vector ETV
attr interpolationmode sample-hold
attr source "count(packetPushed) - count(packetPopped) - count(packetRemoved) - count(packetDropped)"
attr title "queue length, vector"
vector 361 scenario.client[4].ppp[2].ppp.queue packetPopped:vector(packetBytes) ETV
attr interpolationmode none
attr title "packet popped, vector(packetBytes)"
vector 362 scenario.client[4].ppp[2].ppp.queue queueingTime:vector ETV
attr interpolationmode none
attr source queueingTime(packetPopped)
attr title "queueing times, vector"
attr unit s
vector 363 scenario.client[4].ppp[2].ppp txPk:vector(packetBytes) ETV
attr interpolationmode none
attr source packetSentToLower
attr title "packets transmitted, vector(packetBytes)"
vector 364 scenario.client[2].ppp[3].ppp rxPkOk:vector(packetBytes) ETV
attr interpolationmode none
attr source rxPkOk
attr title "packets received OK, vector(packetBytes)"
vector 365 scenario.client[2].ppp[3].ppp passedUpPk:vector(packetBytes) ETV
attr interpolationmode none
attr source packetSentToUpper
attr title "packets passed to higher layer, vector(packetBytes)"
vector 366 scenario.client[2].tcp.conn-55 rcvAdv:vector ETV
attr interpolationmode sample-hold
vector 367 scenario.client[2].tcp.conn-55 sndWnd:vector ETV
attr interpolationmode sample-hold
vector 368 scenario.client[2].tcp.conn-55 tcpRcvQueueBytes:vector ETV
attr interpolationmode sample-hold
vector 369 scenario.client[2].tcp.conn-55 rcvWnd:vector ETV
attr interpolationmode sample-hold
vector 370 scenario.client[2].tcp.conn-55 sndAck:vector ETV
attr interpolationmode sample-hold
vector 371 scenario.client[2].ppp[3].ppp rcvdPkFromHl:vector(packetBytes) ETV
attr interpolationmode none
attr source packetReceivedFromUpper
attr title "packets received from higher layer, vector(packetBytes)"
vector 372 scenario.client[2].ppp[3].ppp.queue packetPushed:vector(packetBytes) ETV
attr interpolationmode none
attr title "packet pushed, vector(packetBytes)"
vector 373 scenario.client[2].ppp[3].ppp.queue queueLength:vector ETV
attr interpolationmode sample-hold
attr source "count(packetPushed) - count(packetPopped) - count(packetRemoved) - count(packetDropped)"
attr title "queue length, vector"
vector 374 scenario.client[2].ppp[3].ppp.queue packetPopped:vector(packetBytes) ETV
attr interpolationmode none
attr title "packet popped, vector(packetBytes)"
vector 375 scenario.client[2].ppp[3].ppp.queue queueingTime:vector ETV
attr interpolationmode none
attr source queueingTime(packetPopped)
attr title "queueing times, vector"
attr unit s
vector 376 scenario.client[2].ppp[3].ppp txPk:vector(packetBytes) ETV
attr interpolationmode none
attr source packetSentToLower
attr title "packets transmitted, vector(packetBytes)"
vector 377 scenario.client[4].ppp[2].ppp rxPkOk:vector(packetBytes) ETV
attr interpolationmode none
attr source rxPkOk
attr title "packets received OK, vector(packetBytes)"
vector 378 scenario.client[4].ppp[2].ppp passedUpPk:vector(packetBytes) ETV
attr interpolationmode none
attr source packetSentToUpper
attr title "packets passed to higher layer, vector(packetBytes)"
vector 379 scenario.client[4].tcp.conn-54 rcvSeq:vector ETV
attr interpolationmode sample-hold
vector 380 scenario.client[4].tcp.conn-54 rcvAck:vector ETV
attr interpolationmode sample-hold
vector 381 scenario.client[4].tcp.conn-54 sndWnd:vector ETV
attr interpolationmode sample-hold
vector 382 scenario.client[4].tcp.conn-54 unacked:vector ETV
attr interpolationmode sample-hold
vector 383 scenario.client[2].tcp.conn-55 rcvSeq:vector ETV
attr interpolationmode sample-hold
vector 384 scenario.client[2].tcp.conn-55 rcvAck:vector ETV
attr interpolationmode sample-hold
vector 385 scenario.client[2].tcp.conn-55 unacked:vector ETV
attr interpolationmode sample-hold
vector 386 scenario.client[2].tcp.conn-55 cwnd:vector ETV
attr interpolationmode sample-hold
vector 387 scenario.client[2].tcp.conn-55 ssthresh:vector ETV
attr interpolationmode sample-hold
vector 388 scenario.client[2].tcp.conn-55 dupAcks:vector ETV
attr interpolationmode sample-hold
vector 389 scenario.client[4].tcp.conn-54 rtt:vector ETV
attr interpolationmode sample-hold
vector 390 scenario.client[4].tcp.conn-54 srtt:vector ETV
attr interpolationmode sample-hold
vector 391 scenario.client[4].tcp.conn-54 rttvar:vector ETV
attr interpolationmode sample-hold
vector 392 scenario.client[4].tcp.conn-54 rto:vector ETV
attr interpolationmode sample-hold
vector 393 scenario.client[4].tcp.conn-54 cwnd:vector ETV
attr interpolationmode sample-hold
vector 394 scenario.client[4].tcp.conn-54 ssthresh:vector ETV
attr interpolationmode sample-hold
vector 395 scenario.client[4].tcp.conn-54 dupAcks:vector ETV
attr interpolationmode sample-hold
vector 396 scenario.client[1].tcp.conn-56 tcpRcvQueueBytes:vector ETV
attr interpolationmode sample-hold
vector 397 scenario.client[1].tcp.conn-56 rcvAdv:vector ETV
attr interpolationmode sample-hold
vector 398 scenario.client[1].tcp.conn-56 rcvWnd:vector ETV
attr interpolationmode sample-hold
vector 399 scenario.client[1].tcp.conn-56 sndAck:vector ETV
attr interpolationmode sample-hold
vector 400 scenario.client[4].tcp.conn-57 rcvAdv:vector ETV
attr interpolationmode sample-hold
vector 401 scenario.client[4].tcp.conn-57 sndWnd:vector ETV
attr interpolationmode sample-hold
vector 402 scenario.client[4].tcp.conn-57 tcpRcvQueueBytes:vector ETV
attr interpolationmode sample-hold
vector 403 scenario.client[4].tcp.conn-57 rcvWnd:vector ETV
attr interpolationmode sample-hold
vector 404 scenario.client[4].tcp.conn-57 sndAck:vector ETV
attr interpolationmode sample-hold
vector 405 scenario.client[1].tcp.conn-56 rcvSeq:vector ETV
attr interpolationmode sample-hold
vector 406 scenario.client[1].tcp.conn-56 rcvAck:vector ETV
attr interpolationmode sample-hold
vector 407 scenario.client[1].tcp.conn-56 sndWnd:vector ETV
attr interpolationmode sample-hold
vector 408 scenario.client[1].tcp.conn-56 unacked:vector ETV
attr interpolationmode sample-hold
vector 409 scenario.client[4].tcp.conn-57 rcvSeq:vector ETV
attr interpolationmode sample-hold
vector 410 scenario.client[4].tcp.conn-57 rcvAck:vector ETV
attr interpolationmode sample-hold
vector 411 scenario.client[4].tcp.conn-57 unacked:vector ETV
attr interpolationmode sample-hold
vector 412 scenario.client[4].tcp.conn-57 cwnd:vector ETV
attr interpolationmode sample-hold
vector 413 scenario.client[4].tcp.conn-57 ssthresh:vector ETV
attr interpolationmode sample-hold
vector 414 scenario.client[4].tcp.conn-57 dupAcks:vector ETV
attr interpolationmode sample-hold
vector 415 scenario.client[1].tcp.conn-56 rtt:vector ETV
attr interpolationmode sample-hold
vector 416 scenario.client[1].tcp.conn-56 srtt:vector ETV
attr interpolationmode sample-hold
vector 417 scenario.client[1].tcp.conn-56 rttvar:vector ETV
attr interpolationmode sample-hold
vector 418 scenario.client[1].tcp.conn-56 rto:vector ETV
attr interpolationmode sample-hold
vector 419 scenario.client[1].tcp.conn-56 cwnd:vector ETV
attr interpolationmode sample-hold
vector 420 scenario.client[1].tcp.conn-56 ssthresh:vector ETV
attr interpolationmode sample-hold
vector 421 scenario.client[1].tcp.conn-56 dupAcks:vector ETV
attr interpolationmode sample-hold
vector 422 scenario.client[4].tcp.conn-58 tcpRcvQueueBytes:vector ETV
attr interpolationmode sample-hold
vector 423 scenario.client[4].tcp.conn-58 rcvAdv:vector ETV
attr interpolationmode sample-hold
vector 424 scenario.client[4].tcp.conn-58 rcvWnd:vector ETV
attr interpolationmode sample-hold
vector 425 scenario.client[4].tcp.conn-58 sndAck:vector ETV
attr interpolationmode sample-hold
vector 426 scenario.client[4].ppp[3].ppp rcvdPkFromHl:vector(packetBytes) ETV
attr interpolationmode none
attr source packetReceivedFromUpper
attr title "packets received from higher layer, vector(packetBytes)"
vector 427 scenario.client[4].ppp[3].ppp.queue packetPushed:vector(packetBytes) ETV
attr interpolationmode none
attr title "packet pushed, vector(packetBytes)"
vector 428 scenario.client[4].ppp[3].ppp.queue queueLength:vector ETV
attr interpolationmode sample-hold
attr source "count(packetPushed) - count(packetPopped) - count(packetRemoved) - count(packetDropped)"
attr title "queue length, vector"
vector 429 scenario.client[4].ppp[3].ppp.queue packetPopped:vector(packetBytes) ETV
attr interpolationmode none
attr title "packet popped, vector(packetBytes)"
vector 430 scenario.client[4].ppp[3].ppp.queue queueingTime:vector ETV
attr interpolationmode none
attr source queueingTime(packetPopped)
attr title "queueing times, vector"
attr unit s
vector 431 scenario.client[4].ppp[3].ppp txPk:vector(packetBytes) ETV
attr interpolationmode none
attr source packetSentToLower
attr title "packets transmitted, vector(packetBytes)"
vector 432 scenario.client[3].ppp[3].ppp rxPkOk:vector(packetBytes) ETV
attr interpolationmode none
attr source rxPkOk
attr title "packets received OK, vector(packetBytes)"
vector 433 scenario.client[3].ppp[3].ppp passedUpPk:vector(packetBytes) ETV
attr interpolationmode none
attr source packetSentToUpper
attr title "packets passed to higher layer, vector(packetBytes)"
vector 434 scenario.client[3].tcp.conn-59 rcvAdv:vector ETV
attr interpolationmode sample-hold
vector 435 scenario.client[3].tcp.conn-59 sndWnd:vector ETV
attr interpolationmode sample-hold
vector 436 scenario.client[3].tcp.conn-59 tcpRcvQueueBytes:vector ETV
attr interpolationmode sample-hold
vector 437 scenario.client[3].tcp.conn-59 rcvWnd:vector ETV
attr interpolationmode sample-hold
vector 438 scenario.client[3].tcp.conn-59 sndAck:vector ETV
attr interpolationmode sample-hold
vector 439 scenario.client[3].ppp[3].ppp rcvdPkFromHl:vector(packetBytes) ETV
attr interpolationmode none
attr source packetReceivedFromUpper
attr title "packets received from higher layer, vector(packetBytes)"
vector 440 scenario.client[3].ppp[3].ppp.queue packetPushed:vector(packetBytes) ETV
attr interpolationmode none
attr title "packet pushed, vector(packetBytes)"
vector 441 scenario.client[3].ppp[3].ppp.queue queueLength:vector ETV
attr interpolationmode sample-hold
attr source "count(packetPushed) - count(packetPopped) - count(packetRemoved) - count(packetDropped)"
attr title "queue length, vector"
vector 442 scenario.client[3].ppp[3].ppp.queue packetPopped:vector(packetBytes) ETV
attr interpolationmode none
attr title "packet popped, vector(packetBytes)"
vector 443 scenario.client[3].ppp[3].ppp.queue queueingTime:vector ETV
attr interpolationmode none
attr source queueingTime(packetPopped)
attr title "queueing times, vector"
attr unit s
vector 444 scenario.client[3].ppp[3].ppp txPk:vector(packetBytes) ETV
attr interpolationmode none
attr source packetSentToLower
attr title "packets transmitted, vector(packetBytes)"
vector 445 scenario.client[4].ppp[3].ppp rxPkOk:vector(packetBytes) ETV
attr interpolationmode none
attr source rxPkOk
attr title "packets received OK, vector(packetBytes)"
vector 446 scenario.client[4].ppp[3].ppp passedUpPk:vector(packetBytes) ETV
attr interpolationmode none
attr source packetSentToUpper
attr title "packets passed to higher layer, vector(packetBytes)"
vector 447 scenario.client[4].tcp.conn-58 rcvSeq:vector ETV
attr interpolationmode sample-hold
vector 448 scenario.client[4].tcp.conn-58 rcvAck:vector ETV
attr interpolationmode sample-hold
vector 449 scenario.client[4].tcp.conn-58 sndWnd:vector ETV
attr interpolationmode sample-hold
vector 450 scenario.client[4].tcp.conn-58 unacked:vector ETV
attr interpolationmode sample-hold
vector 451 scenario.client[3].tcp.conn-59 rcvSeq:vector ETV
attr interpolationmode sample-hold
vector 452 scenario.client[3].tcp.conn-59 rcvAck:vector ETV
attr interpolationmode sample-hold
vector 453 scenario.client[3].tcp.conn-59 unacked:vector ETV
attr interpolationmode sample-hold
vector 454 scenario.client[3].tcp.conn-59 cwnd:vector ETV
attr interpolationmode sample-hold
vector 455 scenario.client[3].tcp.conn-59 ssthresh:vector ETV
attr interpolationmode sample-hold
vector 456 scenario.client[3].tcp.conn-59 dupAcks:vector ETV
attr interpolationmode sample-hold
vector 457 scenario.client[4].tcp.conn-58 rtt:vector ETV
attr interpolationmode sample-hold
vector 458 scenario.client[4].tcp.conn-58 srtt:vector ETV
attr interpolationmode sample-hold
vector 459 scenario.client[4].tcp.conn-58 rttvar:vector ETV
attr interpolationmode sample-hold
vector 460 scenario.client[4].tcp.conn-58 rto:vector ETV
attr interpolationmode sample-hold
vector 461 scenario.client[4].tcp.conn-58 cwnd:vector ETV
attr interpolationmode sample-hold
vector 462 scenario.client[4].tcp.conn-58 ssthresh:vector ETV
attr interpolationmode sample-hold
vector 463 scenario.client[4].tcp.conn-58 dupAcks:vector ETV
attr interpolationmode sample-hold
vector 464 scenario.client[2].tcp.conn-60 tcpRcvQueueBytes:vector ETV
attr interpolationmode sample-hold
vector 465 scenario.client[2].tcp.conn-60 rcvAdv:vector ETV
attr interpolationmode sample-hold
vector 466 scenario.client[2].tcp.conn-60 rcvWnd:vector ETV
attr interpolationmode sample-hold
vector 467 scenario.client[2].tcp.conn-60 sndAck:vector ETV
attr interpolationmode sample-hold
vector 468 scenario.client[4].tcp.conn-61 rcvAdv:vector ETV
attr interpolationmode sample-hold
vector 469 scenario.client[4].tcp.conn-61 sndWnd:vector ETV
attr interpolationmode sample-hold
vector 470 scenario.client[4].tcp.conn-61 tcpRcvQueueBytes:vector ETV
attr interpolationmode sample-hold
vector 471 scenario.client[4].tcp.conn-61 rcvWnd:vector ETV
attr interpolationmode sample-hold
vector 472 scenario.client[4].tcp.conn-61 sndAck:vector ETV
attr interpolationmode sample-hold
vector 473 scenario.client[2].tcp.conn-60 rcvSeq:vector ETV
attr interpolationmode sample-hold
vector 474 scenario.client[2].tcp.conn-60 rcvAck:vector ETV
attr interpolationmode sample-hold
vector 475 scenario.client[2].tcp.conn-60 sndWnd:vector ETV
attr interpolationmode sample-hold
vector 476 scenario.client[2].tcp.conn-60 unacked:vector ETV
attr interpolationmode sample-hold
vector 477 scenario.client[4].tcp.conn-61 rcvSeq:vector ETV
attr interpolationmode sample-hold
vector 478 scenario.client[4].tcp.conn-61 rcvAck:vector ETV
attr interpolationmode sample-hold
vector 479 scenario.client[4].tcp.conn-61 unacked:vector ETV
attr interpolationmode sample-hold
vector 480 scenario.client[4].tcp.conn-61 cwnd:vector ETV
attr interpolationmode sample-hold
vector 481 scenario.client[4].tcp.conn-61 ssthresh:vector ETV
attr interpolationmode sample-hold
vector 482 scenario.client[4].tcp.conn-61 dupAcks:vector ETV
attr interpolationmode sample-hold
vector 483 scenario.client[2].tcp.conn-60 rtt:vector ETV
attr interpolationmode sample-hold
vector 484 scenario.client[2].tcp.conn-60 srtt:vector ETV
attr interpolationmode sample-hold
vector 485 scenario.client[2].tcp.conn-60 rttvar:vector ETV
attr interpolationmode sample-hold
vector 486 scenario.client[2].tcp.conn-60 rto:vector ETV
attr interpolationmode sample-hold
vector 487 scenario.client[2].tcp.conn-60 cwnd:vector ETV
attr interpolationmode sample-hold
vector 488 scenario.client[2].tcp.conn-60 ssthresh:vector ETV
attr interpolationmode sample-hold
vector 489 scenario.client[2].tcp.conn-60 dupAcks:vector ETV
attr interpolationmode sample-hold
vector 490 scenario.client[3].tcp.conn-62 tcpRcvQueueBytes:vector ETV
attr interpolationmode sample-hold
vector 491 scenario.client[3].tcp.conn-62 rcvAdv:vector ETV
attr interpolationmode sample-hold
vector 492 scenario.client[3].tcp.conn-62 rcvWnd:vector ETV
attr interpolationmode sample-hold
vector 493 scenario.client[3].tcp.conn-62 sndAck:vector ETV
attr interpolationmode sample-hold
vector 494 scenario.client[4].tcp.conn-63 rcvAdv:vector ETV
attr interpolationmode sample-hold
vector 495 scenario.client[4].tcp.conn-63 sndWnd:vector ETV
attr interpolationmode sample-hold
vector 496 scenario.client[4].tcp.conn-63 tcpRcvQueueBytes:vector ETV
attr interpolationmode sample-hold
vector 497 scenario.client[4].tcp.conn-63 rcvWnd:vector ETV
attr interpolationmode sample-hold
vector 498 scenario.client[4].tcp.conn-63 sndAck:vector ETV
attr interpolationmode sample-hold
vector 499 scenario.client[3].tcp.conn-62 rcvSeq:vector ETV
attr interpolationmode sample-hold
vector 500 scenario.client[3].tcp.conn-62 rcvAck:vector ETV
attr interpolationmode sample-hold
vector 501 scenario.client[3].tcp.conn-62 sndWnd:vector ETV
attr interpolationmode sample-hold
vector 502 scenario.client[3].tcp.conn-62 unacked:vector ETV
attr interpolationmode sample-hold
vector 503 scenario.client[4].tcp.conn-63 rcvSeq:vector ETV
attr interpolationmode sample-hold
vector 504 scenario.client[4].tcp.conn-63 rcvAck:vector ETV
attr interpolationmode sample-hold
vector 505 scenario.client[4].tcp.conn-63 unacked:vector ETV
attr interpolationmode sample-hold
vector 506 scenario.client[4].tcp.conn-63 cwnd:vector ETV
attr interpolationmode sample-hold
vector 507 scenario.client[4].tcp.conn-63 ssthresh:vector ETV
attr interpolationmode sample-hold
vector 508 scenario.client[4].tcp.conn-63 dupAcks:vector ETV
attr interpolationmode sample-hold
vector 509 scenario.client[3].tcp.conn-62 rtt:vector ETV
attr interpolationmode sample-hold
vector 510 scenario.client[3].tcp.conn-62 srtt:vector ETV
attr interpolationmode sample-hold
vector 511 scenario.client[3].tcp.conn-62 rttvar:vector ETV
attr interpolationmode sample-hold
vector 512 scenario.client[3].tcp.conn-62 rto:vector ETV
attr interpolationmode sample-hold
vector 513 scenario.client[3].tcp.conn-62 cwnd:vector ETV
attr interpolationmode sample-hold
vector 514 scenario.client[3].tcp.conn-62 ssthresh:vector ETV
attr interpolationmode sample-hold
vector 515 scenario.client[3].tcp.conn-62 dupAcks:vector ETV
attr interpolationmode sample-hold
vector 516 scenario.client[5].tcp.conn-64 tcpRcvQueueBytes:vector ETV
attr interpolationmode sample-hold
vector 517 scenario.client[5].tcp.conn-64 rcvAdv:vector ETV
attr interpolationmode sample-hold
vector 518 scenario.client[5].tcp.conn-64 rcvWnd:vector ETV
attr interpolationmode sample-hold
vector 519 scenario.client[5].tcp.conn-64 sndAck:vector ETV
attr interpolationmode sample-hold
vector 520 scenario.client[5].ppp[0].ppp rcvdPkFromHl:vector(packetBytes) ETV
attr interpolationmode none
attr source packetReceivedFromUpper
attr title "packets received from higher layer, vector(packetBytes)"
vector 521 scenario.client[5].ppp[0].ppp.queue packetPushed:vector(packetBytes) ETV
attr interpolationmode none
attr title "packet pushed, vector(packetBytes)"
vector 522 scenario.client[5].ppp[0].ppp.queue queueLength:vector ETV
attr interpolationmode sample-hold
attr source "count(packetPushed) - count(packetPopped) - count(packetRemoved) - count(packetDropped)"
attr title "queue length, vector"
vector 523 scenario.client[5].ppp[0].ppp.queue packetPopped:vector(packetBytes) ETV
attr interpolationmode none
attr title "packet popped, vector(packetBytes)"
vector 524 scenario.client[5].ppp[0].ppp.queue queueingTime:vector ETV
attr interpolationmode none
attr source queueingTime(packetPopped)
attr title "queueing times, vector"
attr unit s
vector 525 scenario.client[5].ppp[0].ppp txPk:vector(packetBytes) ETV
attr interpolationmode none
attr source packetSentToLower
attr title "packets transmitted, vector(packetBytes)"
vector 526 scenario.client[0].ppp[4].ppp rxPkOk:vector(packetBytes) ETV
attr interpolationmode none
attr source rxPkOk
attr title "packets received OK, vector(packetBytes)"
vector 527 scenario.client[0].ppp[4].ppp passedUpPk:vector(packetBytes) ETV
attr interpolationmode none
attr source packetSentToUpper
attr title "packets passed to higher layer, vector(packetBytes)"
vector 528 scenario.client[0].tcp.conn-65 rcvAdv:vector ETV
attr interpolationmode sample-hold
vector 529 scenario.client[0].tcp.conn-65 sndWnd:vector ETV
attr interpolationmode sample-hold
vector 530 scenario.client[0].tcp.conn-65 tcpRcvQueueBytes:vector ETV
attr interpolationmode sample-hold
vector 531 scenario.client[0].tcp.conn-65 rcvWnd:vector ETV
attr interpolationmode sample-hold
vector 532 scenario.client[0].tcp.conn-65 sndAck:vector ETV
attr interpolationmode sample-hold
vector 533 scenario.client[0].ppp[4].ppp rcvdPkFromHl:vector(packetBytes) ETV
attr interpolationmode none
attr source packetReceivedFromUpper
attr title "packets received from higher layer, vector(packetBytes)"
vector 534 scenario.client[0].ppp[4].ppp.queue packetPushed:vector(packetBytes) ETV
attr interpolationmode none
attr title "packet pushed, vector(packetBytes)"
vector 535 scenario.client[0].ppp[4].ppp.queue queueLength:vector ETV
attr interpolationmode sample-hold
attr source "count(packetPushed) - count(packetPopped) - count(packetRemoved) - count(packetDropped)"
attr title "queue length, vector"
vector 536 scenario.client[0].ppp[4].ppp.queue packetPopped:vector(packetBytes) ETV
attr interpolationmode none
attr title "packet popped, vector(packetBytes)"
vector 537 scenario.client[0].ppp[4].ppp.queue queueingTime:vector ETV
attr interpolationmode none
attr source queueingTime(packetPopped)
attr title "queueing times, vector"
attr unit s
vector 538 scenario.client[0].ppp[4].ppp txPk:vector(packetBytes) ETV
attr interpolationmode none
attr source packetSentToLower
attr title "packets transmitted, vector(packetBytes)"
vector 539 scenario.client[5].ppp[0].ppp rxPkOk:vector(packetBytes) ETV
attr interpolationmode none
attr source rxPkOk
attr title "packets received OK, vector(packetBytes)"
vector 540 scenario.client[5].ppp[0].ppp passedUpPk:vector(packetBytes) ETV
attr interpolationmode none
attr source packetSentToUpper
attr title "packets passed to higher layer, vector(packetBytes)"
vector 541 scenario.client[5].tcp.conn-64 rcvSeq:vector ETV
attr interpolationmode sample-hold
vector 542 scenario.client[5].tcp.conn-64 rcvAck:vector ETV
attr interpolationmode sample-hold
vector 543 scenario.client[5].tcp.conn-64 sndWnd:vector ETV
attr interpolationmode sample-hold
vector 544 scenario.client[5].tcp.conn-64 unacked:vector ETV
attr interpolationmode sample-hold
vector 545 scenario.client[0].tcp.conn-65 rcvSeq:vector ETV
attr interpolationmode sample-hold
vector 546 scenario.client[0].tcp.conn-65 rcvAck:vector ETV
attr interpolationmode sample-hold
vector 547 scenario.client[0].tcp.conn-65 unacked:vector ETV
attr interpolationmode sample-hold
vector 548 scenario.client[0].tcp.conn-65 cwnd:vector ETV
attr interpolationmode sample-hold
vector 549 scenario.client[0].tcp.conn-65 ssthresh:vector ETV
attr interpolationmode sample-hold
vector 550 scenario.client[0].tcp.conn-65 dupAcks:vector ETV
attr interpolationmode sample-hold
vector 551 scenario.client[5].tcp.conn-64 rtt:vector ETV
attr interpolationmode sample-hold
vector 552 scenario.client[5].tcp.conn-64 srtt:vector ETV
attr interpolationmode sample-hold
vector 553 scenario.client[5].tcp.conn-64 rttvar:vector ETV
attr interpolationmode sample-hold
vector 554 scenario.client[5].tcp.conn-64 rto:vector ETV
attr interpolationmode sample-hold
vector 555 scenario.client[5].tcp.conn-64 cwnd:vector ETV
attr interpolationmode sample-hold
vector 556 scenario.client[5].tcp.conn-64 ssthresh:vector ETV
attr interpolationmode sample-hold
vector 557 scenario.client[5].tcp.conn-64 dupAcks:vector ETV
attr interpolationmode sample-hold
vector 558 scenario.client[5].tcp.conn-66 tcpRcvQueueBytes:vector ETV
attr interpolationmode sample-hold
vector 559 scenario.client[5].tcp.conn-66 rcvAdv:vector ETV
attr interpolationmode sample-hold
vector 560 scenario.client[5].tcp.conn-66 rcvWnd:vector ETV
attr interpolationmode sample-hold
vector 561 scenario.client[5].tcp.conn-66 sndAck:vector ETV
attr interpolationmode sample-hold
vector 562 scenario.client[5].ppp[1].ppp rcvdPkFromHl:vector(packetBytes) ETV
attr interpolationmode none
attr source packetReceivedFromUpper
attr title "packets received from higher layer, vector(packetBytes)"
vector 563 scenario.client[5].ppp[1].ppp.queue packetPushed:vector(packetBytes) ETV
attr interpolationmode none
attr title "packet pushed, vector(packetBytes)"
vector 564 scenario.client[5].ppp[1].ppp.queue queueLength:vector ETV
attr interpolationmode sample-hold
attr source "count(packetPushed) - count(packetPopped) - count(packetRemoved) - count(packetDropped)"
attr title "queue length, vector"
vector 565 scenario.client[5].ppp[1].ppp.queue packetPopped:vector(packetBytes) ETV
attr interpolationmode none
attr title "packet popped, vector(packetBytes)"
vector 566 scenario.client[5].ppp[1].ppp.queue queueingTime:vector ETV
attr interpolationmode none
attr source queueingTime(packetPopped)
attr title "queueing times, vector"
attr unit s
vector 567 scenario.client[5].ppp[1].ppp txPk:vector(packetBytes) ETV
attr interpolationmode none
attr source packetSentToLower
attr title "packets transmitted, vector(packetBytes)"
vector 568 scenario.client[1].ppp[4].ppp rxPkOk:vector(packetBytes) ETV
attr interpolationmode none
attr source rxPkOk
attr title "packets received OK, vector(packetBytes)"
vector 569 scenario.client[1].ppp[4].ppp passedUpPk:vector(packetBytes) ETV
attr interpolationmode none
attr source packetSentToUpper
attr title "packets passed to higher layer, vector(packetBytes)"
vector 570 scenario.client[1].tcp.conn-67 rcvAdv:vector ETV
attr interpolationmode sample-hold
vector 571 scenario.client[1].tcp.conn-67 sndWnd:vector ETV
attr interpolationmode sample-hold
vector 572 scenario.client[1].tcp.conn-67 tcpRcvQueueBytes:vector ETV
attr interpolationmode sample-hold
vector 573 scenario.client[1].tcp.conn-67 rcvWnd:vector ETV
attr interpolationmode sample-hold
vector 574 scenario.client[1].tcp.conn-67 sndAck:vector ETV
attr interpolationmode sample-hold
vector 575 scenario.client[1].ppp[4].ppp rcvdPkFromHl:vector(packetBytes) ETV
attr interpolationmode none
attr source packetReceivedFromUpper
attr title "packets received from higher layer, vector(packetBytes)"
vector 576 scenario.client[1].ppp[4].ppp.queue packetPushed:vector(packetBytes) ETV
attr interpolationmode none
attr title "packet pushed, vector(packetBytes)"
vector 577 scenario.client[1].ppp[4].ppp.queue queueLength:vector ETV
attr interpolationmode sample-hold
attr source "count(packetPushed) - count(packetPopped) - count(packetRemoved) - count(packetDropped)"
attr title "queue length, vector"
vector 578 scenario.client[1].ppp[4].ppp.queue packetPopped:vector(packetBytes) ETV
attr interpolationmode none
attr title "packet popped, vector(packetBytes)"
vector 579 scenario.client[1].ppp[4].ppp.queue queueingTime:vector ETV
attr interpolationmode none
attr source queueingTime(packetPopped)
attr title "queueing times, vector"
attr unit s
vector 580 scenario.client[1].ppp[4].ppp txPk:vector(packetBytes) ETV
attr interpolationmode none
attr source packetSentToLower
attr title "packets transmitted, vector(packetBytes)"
vector 581 scenario.client[5].ppp[1].ppp rxPkOk:vector(packetBytes) ETV
attr interpolationmode none
attr source rxPkOk
attr title "packets received OK, vector(packetBytes)"
vector 582 scenario.client[5].ppp[1].ppp passedUpPk:vector(packetBytes) ETV
attr interpolationmode none
attr source packetSentToUpper
attr title "packets passed to higher layer, vector(packetBytes)"
vector 583 scenario.client[5].tcp.conn-66 rcvSeq:vector ETV
attr interpolationmode sample-hold
vector 584 scenario.client[5].tcp.conn-66 rcvAck:vector ETV
attr interpolationmode sample-hold
vector 585 scenario.client[5].tcp.conn-66 sndWnd:vector ETV
attr interpolationmode sample-hold
vector 586 scenario.client[5].tcp.conn-66 unacked:vector ETV
attr interpolationmode sample-hold
vector 587 scenario.client[1].tcp.conn-67 rcvSeq:vector ETV
attr interpolationmode sample-hold
vector 588 scenario.client[1].tcp.conn-67 rcvAck:vector ETV
attr interpolationmode sample-hold
vector 589 scenario.client[1].tcp.conn-67 unacked:vector ETV
attr interpolationmode sample-hold
vector 590 scenario.client[1].tcp.conn-67 cwnd:vector ETV
attr interpolationmode sample-hold
vector 591 scenario.client[1].tcp.conn-67 ssthresh:vector ETV
attr interpolationmode sample-hold
vector 592 scenario.client[1].tcp.conn-67 dupAcks:vector ETV
attr interpolationmode sample-hold
vector 593 scenario.client[5].tcp.conn-66 rtt:vector ETV
attr interpolationmode sample-hold
vector 594 scenario.client[5].tcp.conn-66 srtt:vector ETV
attr interpolationmode sample-hold
vector 595 scenario.client[5].tcp.conn-66 rttvar:vector ETV
attr interpolationmode sample-hold
vector 596 scenario.client[5].tcp.conn-66 rto:vector ETV
attr interpolationmode sample-hold
vector 597 scenario.client[5].tcp.conn-66 cwnd:vector ETV
attr interpolationmode sample-hold
vector 598 scenario.client[5].tcp.conn-66 ssthresh:vector ETV
attr interpolationmode sample-hold
vector 599 scenario.client[5].tcp.conn-66 dupAcks:vector ETV
attr interpolationmode sample-hold
vector 600 scenario.client[5].tcp.conn-68 tcpRcvQueueBytes:vector ETV
attr interpolationmode sample-hold
vector 601 scenario.client[5].tcp.conn-68 rcvAdv:vector ETV
attr interpolationmode sample-hold
vector 602 scenario.client[5].tcp.conn-68 rcvWnd:vector ETV
attr interpolationmode sample-hold
vector 603 scenario.client[5].tcp.conn-68 sndAck:vector ETV
attr interpolationmode sample-hold
vector 604 scenario.client[5].ppp[2].ppp rcvdPkFromHl:vector(packetBytes) ETV
attr interpolationmode none
attr source packetReceivedFromUpper
attr title "packets received from higher layer, vector(packetBytes)"
vector 605 scenario.client[5].ppp[2].ppp.queue packetPushed:vector(packetBytes) ETV
attr interpolationmode none
attr title "packet pushed, vector(packetBytes)"
vector 606 scenario.client[5].ppp[2].ppp.queue queueLength:vector ETV
attr interpolationmode sample-hold
attr source "count(packetPushed) - count(packetPopped) - count(packetRemoved) - count(packetDropped)"
attr title "queue length, vector"
vector 607 scenario.client[5].ppp[2].ppp.queue packetPopped:vector(packetBytes) ETV
attr interpolationmode none
attr title "packet popped, vector(packetBytes)"
vector 608 scenario.client[5].ppp[2].ppp.queue queueingTime:vector ETV
attr interpolationmode none
attr source queueingTime(packetPopped)
attr title "queueing times, vector"
attr unit s
vector 609 scenario.client[5].ppp[2].ppp txPk:vector(packetBytes) ETV
attr interpolationmode none
attr source packetSentToLower
attr title "packets transmitted, vector(packetBytes)"
vector 610 scenario.client[2].ppp[4].ppp rxPkOk:vector(packetBytes) ETV
attr interpolationmode none
attr source rxPkOk
attr title "packets received OK, vector(packetBytes)"
vector 611 scenario.client[2].ppp[4].ppp passedUpPk:vector(packetBytes) ETV
attr interpolationmode none
attr source packetSentToUpper
attr title "packets passed to higher layer, vector(packetBytes)"
vector 612 scenario.client[2].tcp.conn-69 rcvAdv:vector ETV
attr interpolationmode sample-hold
vector 613 scenario.client[2].tcp.conn-69 sndWnd:vector ETV
attr interpolationmode sample-hold
vector 614 scenario.client[2].tcp.conn-69 tcpRcvQueueBytes:vector ETV
attr interpolationmode sample-hold
vector 615 scenario.client[2].tcp.conn-69 rcvWnd:vector ETV
attr interpolationmode sample-hold
vector 616 scenario.client[2].tcp.conn-69 sndAck:vector ETV
attr interpolationmode sample-hold
vector 617 scenario.client[2].ppp[4].ppp rcvdPkFromHl:vector(packetBytes) ETV
attr interpolationmode none
attr source packetReceivedFromUpper
attr title "packets received from higher layer, vector(packetBytes)"
vector 618 scenario.client[2].ppp[4].ppp.queue packetPushed:vector(packetBytes) ETV
attr interpolationmode none
attr title "packet pushed, vector(packetBytes)"
vector 619 scenario.client[2].ppp[4].ppp.queue queueLength:vector ETV
attr interpolationmode sample-hold
attr source "count(packetPushed) - count(packetPopped) - count(packetRemoved) - count(packetDropped)"
attr title "queue length, vector"
vector 620 scenario.client[2].ppp[4].ppp.queue packetPopped:vector(packetBytes) ETV
attr interpolationmode none
attr title "packet popped, vector(packetBytes)"
vector 621 scenario.client[2].ppp[4].ppp.queue queueingTime:vector ETV
attr interpolationmode none
attr source queueingTime(packetPopped)
attr title "queueing times, vector"
attr unit s
vector 622 scenario.client[2].ppp[4].ppp txPk:vector(packetBytes) ETV
attr interpolationmode none
attr source packetSentToLower
attr title "packets transmitted, vector(packetBytes)"
vector 623 scenario.client[5].ppp[2].ppp rxPkOk:vector(packetBytes) ETV
attr interpolationmode none
attr source rxPkOk
attr title "packets received OK, vector(packetBytes)"
vector 624 scenario.client[5].ppp[2].ppp passedUpPk:vector(packetBytes) ETV
attr interpolationmode none
attr source packetSentToUpper
attr title "packets passed to higher layer, vector(packetBytes)"
vector 625 scenario.client[5].tcp.conn-68 rcvSeq:vector ETV
attr interpolationmode sample-hold
vector 626 scenario.client[5].tcp.conn-68 rcvAck:vector ETV
attr interpolationmode sample-hold
vector 627 scenario.client[5].tcp.conn-68 sndWnd:vector ETV
attr interpolationmode sample-hold
vector 628 scenario.client[5].tcp.conn-68 unacked:vector ETV
attr interpolationmode sample-hold
vector 629 scenario.client[2].tcp.conn-69 rcvSeq:vector ETV
attr interpolationmode sample-hold
vector 630 scenario.client[2].tcp.conn-69 rcvAck:vector ETV
attr interpolationmode sample-hold
vector 631 scenario.client[2].tcp.conn-69 unacked:vector ETV
attr interpolationmode sample-hold
vector 632 scenario.client[2].tcp.conn-69 cwnd:vector ETV
attr interpolationmode sample-hold
vector 633 scenario.client[2].tcp.conn-69 ssthresh:vector ETV
attr interpolationmode sample-hold
vector 634 scenario.client[2].tcp.conn-69 dupAcks:vector ETV
attr interpolationmode sample-hold
vector 635 scenario.client[5].tcp.conn-68 rtt:vector ETV
attr interpolationmode sample-hold
vector 636 scenario.client[5].tcp.conn-68 srtt:vector ETV
attr interpolationmode sample-hold
vector 637 scenario.client[5].tcp.conn-68 rttvar:vector ETV
attr interpolationmode sample-hold
vector 638 scenario.client[5].tcp.conn-68 rto:vector ETV
attr interpolationmode sample-hold
vector 639 scenario.client[5].tcp.conn-68 cwnd:vector ETV
attr interpolationmode sample-hold
vector 640 scenario.client[5].tcp.conn-68 ssthresh:vector ETV
attr interpolationmode sample-hold
vector 641 scenario.client[5].tcp.conn-68 dupAcks:vector ETV
attr interpolationmode sample-hold
vector 642 scenario.client[1].tcp.conn-70 tcpRcvQueueBytes:vector ETV
attr interpolationmode sample-hold
vector 643 scenario.client[1].tcp.conn-70 rcvAdv:vector ETV
attr interpolationmode sample-hold
vector 644 scenario.client[1].tcp.conn-70 rcvWnd:vector ETV
attr interpolationmode sample-hold
vector 645 scenario.client[1].tcp.conn-70 sndAck:vector ETV
attr interpolationmode sample-hold
[...]
846	4287334 4143 1005 49450 3.412772144902 360.15654842886 119 852740 852858 101483081 86544670134139
847	4291477 3905 1005 49450 3.412772144902 360.15654842886 119 7503 7504 892975 6700876897
848	4295382 7042 1005 49450 3.412772144902 360.15654842886 236 0 1 118 118
849	4302424 4111 1012 49443 3.413656144902 360.15567242886 118 852740 852857 100630223 85817303365975
850	4306535 4111 1012 49443 3.413656144902 360.15567242886 118 852967 852967 100650106 85851218964502
851	4310646 27 1012 1012 3.413656144902 3.413656144902 1 0 0 0 0
852	4310673 30 1012 1012 3.413656144902 3.413656144902 1 1072 1072 1072 1149184
853	4310703 36 1012 1012 3.413656144902 3.413656144902 1 4294967295 4294967295 4294967295 1.844674406512e+019
854	4310739 3521 1012 49443 3.413656144902 360.15567242886 118 0 0 0 0
855	4314260 4341 1022 49450 3.414532144902 360.15654842886 118 0.00176 0.002136 0.249792 0.000529585152
856	4318601 5023 1022 49450 3.414532144902 360.15654842886 118 0.00022 0.002135999591 0.234840002932 0.00048296308598516
857	4323624 4983 1022 49450 3.414532144902 360.15654842886 118 1.1432e-007 0.65647 5.2670871965 1.843330377161
858	4328607 3610 1022 49450 3.414532144902 360.15654842886 118 1 2.6261 123.80913342361 136.00573549122
859	4332217 3875 1022 49450 3.414532144902 360.15654842886 118 1072 1608 127032 137040192
860	4336092 4583 1022 49450 3.414532144902 360.15654842886 118 4294967295 4294967295 506806140810 2.1767157996841e+021
861	4340675 3521 1022 49450 3.414532144902 360.15654842886 118 0 0 0 0
862	4344196 765 1054 32571 3.5051515244 141.904922635575 26 0 0 0 0
863	4344961 923 1054 32571 3.5051515244 141.904922635575 27 7504 884019 22991998 20318785711402
864	4345884 843 1054 32571 3.5051515244 141.904922635575 26 7504 7504 195104 1464060416
865	4346727 890 1054 32571 3.5051515244 141.904922635575 26 0 876515 21912875 19206963630625
866	4347617 161 1061 1921 3.5060595244 6.10961389398 5 876287 1527176 5784484 6946577528542
867	4347778 132 1061 1921 3.5060595244 6.10961389398 5 0 0 0 0
868	4347910 925 1061 32582 3.5060595244 141.905806635575 27 883792 883818 23862732 21089999205556
869	4348835 56 1061 1074 3.5060595244 3.5078515244 2 7504 7504 15008 112620032
870	4348891 1505 1061 32582 3.5060595244 141.905806635575 51 0 1 1 1
871	4350396 843 1061 32582 3.5060595244 141.905806635575 26 7503 7504 195103 1464045409
872	4351239 895 1061 32582 3.5060595244 141.905806635575 26 876288 876314 22783837 19965508787765
873	4352134 895 1067 32601 3.5069675244 141.906682635575 26 876514 876515 22789389 19975240422821
874	4353029 895 1067 32601 3.5069675244 141.906682635575 26 876288 876314 22783837 19965508787765
875	4353924 843 1067 32601 3.5069675244 141.906682635575 26 7503 7504 195103 1464045409
876	4354767 1480 1067 32601 3.5069675244 141.906682635575 50 0 2 26 28
877	4356247 865 1074 32582 3.5078515244 141.905806635575 25 876288 876313 21907523 19197582561169
878	4357112 865 1074 32582 3.5078515244 141.905806635575 25 876515 876515 21912875 19206963630625
879	4357977 25 1074 1074 3.5078515244 3.5078515244 1 0 0 0 0
880	4358002 28 1074 1074 3.5078515244 3.5078515244 1 1072 1072 1072 1149184
881	4358030 34 1074 1074 3.5078515244 3.5078515244 1 4294967295 4294967295 4294967295 1.844674406512e+019
882	4358064 740 1074 32582 3.5078515244 141.905806635575 25 0 0 0 0
883	4358804 899 1084 32601 3.5087275244 141.906682635575 25 0.00176 0.002136 0.047016 8.9187392e-005
884	4359703 1048 1084 32601 3.5087275244 141.906682635575 25 0.00022 0.001779986971 0.034641058407 5.3336210333277e-005
885	4360751 1053 1084 32601 3.5087275244 141.906682635575 25 0.026819188332 0.65647 5.076602682779 1.8407904698731
886	4361804 829 1084 32601 3.5087275244 141.906682635575 25 1 2.6261 30.80941608247 43.007039298833
887	4362633 815 1084 32601 3.5087275244 141.906682635575 25 1072 2680 32160 45392768
888	4363448 965 1084 32601 3.5087275244 141.906682635575 25 4294967295 4294967295 107374182375 4.6116860162799e+020
889	4364413 740 1084 32601 3.5087275244 141.906682635575 25 0 0 0 0
890	4365153 2884 1146 33559 3.589863766228 147.16803589148 100 0 0 0 0
891	4368037 3414 1146 33559 3.589863766228 147.16803589148 101 7504 905197 90527204 81938217190916
892	4371451 3184 1146 33559 3.589863766228 147.16803589148 100 7504 7504 750400 5631001600
893	4374635 3379 1146 33559 3.589863766228 147.16803589148 100 0 897693 88871607 79779419502651
894	4378014 6097 1149 33561 3.589863766228 147.16803589148 204 40 44 8269 335257
895	4384111 6097 1149 33561 3.589863766228 147.16803589148 204 40 44 8269 335257
896	4390208 11786 1149 33562 3.589863766228 147.16841189148 408 0 1 204 204
897	4401994 6097 1149 33562 3.589863766228 147.16841189148 204 40 44 8269 335257
898	4408091 5956 1149 33562 3.589863766228 147.16841189148 204 0 0.000376 0.003384 1.272384e-006
899	4414047 6097 1149 33562 3.589863766228 147.16841189148 204 47 51 9697 461019
900	4420144 6097 1151 33567 3.590771766228 147.16929589148 204 47 51 9697 461019
901	4426241 6097 1151 33567 3.590771766228 147.16929589148 204 40 44 8269 335257
902	4432338 3416 1153 33569 3.590771766228 147.16929589148 101 904970 905071 91407051 82725237442205
903	4435754 60 1153 1166 3.590771766228 3.592563766228 2 7504 7504 15008 112620032
904	4435814 5741 1153 33569 3.590771766228 147.16929589148 199 0 1 1 1
905	4441555 3184 1153 33569 3.590771766228 147.16929589148 100 7503 7504 750399 5630986593
906	4444739 3384 1153 33569 3.590771766228 147.16929589148 100 897466 897567 89751682 80553644306190
907	4448123 6097 1155 33572 3.590771766228 147.16929589148 204 40 44 8273 335581
908	4454220 6097 1155 33572 3.590771766228 147.16929589148 204 40 44 8273 335581
909	4460317 11786 1155 33572 3.590771766228 147.16929589148 408 0 1 204 204
910	4472103 6097 1155 33572 3.590771766228 147.16929589148 204 40 44 8273 335581
911	4478200 5984 1155 33572 3.590771766228 147.16929589148 204 0 0.000376 0.004888 1.837888e-006
912	4484184 6097 1155 33572 3.590771766228 147.16929589148 204 47 51 9701 461399
913	4490281 6097 1157 33574 3.591679766228 147.17017189148 204 47 51 9701 461399
914	4496378 6097 1157 33574 3.591679766228 147.17017189148 204 40 44 8273 335581
915	4502475 3384 1159 33576 3.591679766228 147.17017189148 100 897692 897693 89769299 80585270429515
916	4505859 3384 1159 33576 3.591679766228 147.17017189148 100 897466 897567 89751682 80553644306190
917	4509243 3184 1159 33576 3.591679766228 147.17017189148 100 7503 7504 750399 5630986593
918	4512427 5714 1159 33576 3.591679766228 147.17017189148 198 0 2 101 105
919	4518141 3352 1166 33569 3.592563766228 147.16929589148 99 897466 897566 88854115 79748017786701
920	4521493 3352 1166 33569 3.592563766228 147.16929589148 99 897693 897693 88871607 79779419502651
921	4524845 27 1166 1166 3.592563766228 3.592563766228 1 0 0 0 0
922	4524872 30 1166 1166 3.592563766228 3.592563766228 1 1072 1072 1072 1149184
923	4524902 36 1166 1166 3.592563766228 3.592563766228 1 4294967295 4294967295 4294967295 1.844674406512e+019
924	4524938 2857 1166 33569 3.592563766228 147.16929589148 99 0 0 0 0
925	4527795 3009 1174 33548 3.592563766228 147.16715189148 104 0 0 0 0
926	4530804 3559 1174 33548 3.592563766228 147.16715189148 105 7504 905966 94227968 85360593198240
927	4534363 3321 1174 33548 3.592563766228 147.16715189148 104 7504 7504 780416 5856241664
928	4537684 3524 1174 33548 3.592563766228 147.16715189148 104 0 898462 92541586 83145098440732
929	4541208 3462 1182 33576 3.593439766228 147.17017189148 99 0.00176 0.002136 0.17764 0.000319902912
930	4544670 4120 1182 33576 3.593439766228 147.17017189148 99 0.00022 0.001938513956 0.164070402377 0.00028018622300895
931	4548790 4125 1182 33576 3.593439766228 147.17017189148 99 3.2579966e-005 0.65647 5.265856418124 1.8429804968996
932	4552915 2946 1182 33576 3.593439766228 147.17017189148 99 1 2.6261 104.80937503961 117.00773583229
933	4555861 3154 1182 33576 3.593439766228 147.17017189148 99 1072 3216 116312 147382848
934	4559015 3748 1182 33576 3.593439766228 147.17017189148 99 4294967295 4294967295 425201762205 1.8262276624468e+021
935	4562763 2857 1182 33576 3.593439766228 147.17017189148 99 0 0 0 0
936	4565620 3561 1185 33554 3.593847766228 147.16803589148 105 905645 905750 95098222 86130207982910
937	4569181 60 1185 1198 3.593847766228 3.595639766228 2 7504 7504 15008 112620032
938	4569241 5991 1185 33554 3.593847766228 147.16803589148 207 0 1 1 1
939	4575232 3321 1185 33554 3.593847766228 147.16803589148 104 7503 7504 780415 5856226657
940	4578553 3529 1185 33554 3.593847766228 147.16803589148 104 898141 898246 93412162 83902230959216
941	4582082 3529 1191 33566 3.594755766228 147.16891189148 104 898461 898462 93440047 83952330609253
942	4585611 3529 1191 33566 3.594755766228 147.16891189148 104 898141 898246 93412162 83902230959216
943	4589140 3321 1191 33566 3.594755766228 147.16891189148 104 7503 7504 780415 5856226657
944	4592461 5964 1191 33566 3.594755766228 147.16891189148 206 0 2 105 109
945	4598425 3497 1198 33554 3.595639766228 147.16803589148 103 898141 898245 92513916 83095385082700
946	4601922 3497 1198 33554 3.595639766228 147.16803589148 103 898462 898462 92541586 83145098440732
947	4605419 27 1198 1198 3.595639766228 3.595639766228 1 0 0 0 0
948	4605446 30 1198 1198 3.595639766228 3.595639766228 1 1072 1072 1072 1149184
949	4605476 36 1198 1198 3.595639766228 3.595639766228 1 4294967295 4294967295 4294967295 1.844674406512e+019
950	4605512 2982 1198 33554 3.595639766228 147.16803589148 103 0 0 0 0
951	4608494 3612 1208 33566 3.596515766228 147.16891189148 103 0.00176 0.002144 0.185808 0.000336700032
952	4612106 4296 1208 33566 3.596515766228 147.16891189148 103 0.00022 0.001923276044 0.172722324664 0.00029897796827248
953	4616402 4297 1208 33566 3.596515766228 147.16891189148 103 4.2138867e-005 0.65647 5.268692861342 1.8428550401461
954	4620699 3071 1208 33566 3.596515766228 147.16891189148 103 1 2.6261 108.80848129861 121.00431637019
955	4623770 3291 1208 33566 3.596515766228 147.16891189148 103 1072 3216 123816 161173056
956	4627061 3909 1208 33566 3.596515766228 147.16891189148 103 4294967295 4294967295 442381631385 1.9000146387073e+021
957	4630970 2982 1208 33566 3.596515766228 147.16891189148 103 0 0 0 0
958	4633952 824 1330 33022 4.054651509995 143.680763146698 28 0 0 0 0
959	4634776 1022 1330 33022 4.054651509995 143.680763146698 29 7504 1021394 28606536 29210936000624
960	4635798 908 1330 33022 4.054651509995 143.680763146698 28 7504 7504 210112 1576680448
961	4636706 986 1330 33022 4.054651509995 143.680763146698 28 0 1013890 27375030 27755269166700
962	4637692 1025 1337 33028 4.055559509995 143.681647146698 29 1021167 1021195 29614246 30241502283092
963	4638717 60 1337 1350 4.055559509995 4.057351509995 2 7504 7504 15008 112620032
964	4638777 1621 1337 33028 4.055559509995 143.681647146698 55 0 1 1 1
965	4640398 908 1337 33028 4.055559509995 143.681647146698 28 7503 7504 210111 1576665441
966	4641306 992 1337 33028 4.055559509995 143.681647146698 28 1013663 1013691 28382968 28771174019346
967	4642298 992 1343 33040 4.056467509995 143.682523146698 28 1013889 1013890 28388919 28783240071021
968	4643290 992 1343 33040 4.056467509995 143.682523146698 28 1013663 1013691 28382968 28771174019346
969	4644282 908 1343 33040 4.056467509995 143.682523146698 28 7503 7504 210111 1576665441
970	4645190 1594 1343 33040 4.056467509995 143.682523146698 54 0 2 28 30
971	4646784 959 1350 33028 4.057351509995 143.681647146698 27 1013663 1013690 27369277 27743604575865
972	4647743 959 1350 33028 4.057351509995 143.681647146698 27 1013890 1013890 27375030 27755269166700
973	4648702 27 1350 1350 4.057351509995 4.057351509995 1 0 0 0 0
974	4648729 30 1350 1350 4.057351509995 4.057351509995 1 1072 1072 1072 1149184
975	4648759 36 1350 1350 4.057351509995 4.057351509995 1 4294967295 4294967295 4294967295 1.844674406512e+019
976	4648795 797 1350 33028 4.057351509995 143.681647146698 27 0 0 0 0
977	4649592 968 1360 33040 4.058227509995 143.682523146698 27 0.00176 0.002136 0.050536 9.5382592e-005
978	4650560 1133 1360 33040 4.058227509995 143.682523146698 27 0.00022 0.001781519662 0.038164239568 5.9592010717036e-005
979	4651693 1134 1360 33040 4.058227509995 143.682523146698 27 0.020537987131 0.65647 5.120599249913 1.8417505890739
980	4652827 886 1360 33040 4.058227509995 143.682523146698 27 1 2.6261 32.809364425218 45.006624520246
981	4653713 878 1360 33040 4.058227509995 143.682523146698 27 1072 2144 35376 49989504
982	4654591 1040 1360 33040 4.058227509995 143.682523146698 27 4294967295 4294967295 115964116965 4.9806208975823e+020
983	4655631 797 1360 33040 4.058227509995 143.682523146698 27 0 0 0 0
984	4656428 829 1452 33113 4.368909757622 143.940292551283 28 0 0 0 0
985	4657257 1027 1452 33113 4.368909757622 143.940292551283 29 7504 1099959 30806356 33877530757084
986	4658284 913 1452 33113 4.368909757622 143.940292551283 28 7504 7504 210112 1576680448
987	4659197 991 1452 33113 4.368909757622 143.940292551283 28 0 1092455 29496285 32223364029675
988	4660188 1030 1459 33119 4.369817757622 143.941176551283 29 1099732 1099760 31892630 35073787875128
989	4661218 60 1459 1472 4.369817757622 4.371609757622 2 7504 7504 15008 112620032
990	4661278 1631 1459 33119 4.369817757622 143.941176551283 55 0 1 1 1
991	4662909 913 1459 33119 4.369817757622 143.941176551283 28 7503 7504 210111 1576665441
992	4663822 997 1459 33119 4.369817757622 143.941176551283 28 1092228 1092256 30582787 33403816455025
993	4664819 997 1465 33131 4.370725757622 143.942052551283 28 1092454 1092455 30588739 33416819771791
994	4665816 997 1465 33131 4.370725757622 143.942052551283 28 1092228 1092256 30582787 33403816455025
995	4666813 913 1465 33131 4.370725757622 143.942052551283 28 7503 7504 210111 1576665441
996	4667726 1604 1465 33131 4.370725757622 143.942052551283 54 0 2 28 30
997	4669330 964 1472 33119 4.371609757622 143.941176551283 27 1092228 1092255 29490531 32210793285489
998	4670294 964 1472 33119 4.371609757622 143.941176551283 27 1092455 1092455 29496285 32223364029675
999	4671258 27 1472 1472 4.371609757622 4.371609757622 1 0 0 0 0
1000	4671285 31 1472 1472 4.371609757622 4.371609757622 1 1072 1072 1072 1149184
1001	4671316 37 1472 1472 4.371609757622 4.371609757622 1 4294967295 4294967295 4294967295 1.844674406512e+019
1002	4671353 829 1472 33119 4.371609757622 143.941176551283 27 0 0 0 0
1003	4672182 1000 1482 33131 4.372485757622 143.942052551283 27 0.00176 0.002136 0.050536 9.5382592e-005
1004	4673182 1165 1482 33131 4.372485757622 143.942052551283 27 0.00022 0.001788918692 0.038146442986 5.9649736333499e-005
1005	4674347 1163 1482 33131 4.372485757622 143.942052551283 27 0.020542940854 0.65647 5.120662619319 1.8417277052996
1006	4675510 918 1482 33131 4.372485757622 143.942052551283 27 1 2.6261 32.80898992308 45.005708824573
1007	4676428 910 1482 33131 4.372485757622 143.942052551283 27 1072 2680 35376 51138688
1008	4677338 1072 1482 33131 4.372485757622 143.942052551283 27 4294967295 4294967295 115964116965 4.9806208975823e+020
1009	4678410 829 1482 33131 4.372485757622 143.942052551283 27 0 0 0 0
1010	4679239 3758 1620 49593 5.100529985292 364.27134208284 122 0 0 0 0
1011	4682997 4521 1620 49593 5.100529985292 364.27134208284 123 7504 1282864 156516912 2.0078034149453e+014
1012	4687518 4124 1620 49593 5.100529985292 364.27134208284 122 7504 7504 915488 6869821952
1013	4691642 4484 1620 49593 5.100529985292 364.27134208284 122 0 1275360 154318560 1.968117186816e+014
1014	4696126 4524 1627 49599 5.101437985292 364.27222608284 123 1282637 1282759 157771851 2.0237363404133e+014
1015	4700650 62 1627 1640 5.101437985292 5.103229985292 2 7504 7504 15008 112620032
1016	4700712 7488 1627 49599 5.101437985292 364.27222608284 243 0 1 1 1
1017	4708200 4124 1627 49599 5.101437985292 364.27222608284 122 7503 7504 915487 6869806945
1018	4712324 4490 1627 49599 5.101437985292 364.27222608284 122 1275133 1275255 155573727 1.9838675861606e+014
1019	4716814 4490 1633 49606 5.102345985292 364.27310208284 122 1275359 1275360 155593919 1.9843825926048e+014
1020	4721304 4490 1633 49606 5.102345985292 364.27310208284 122 1275133 1275255 155573727 1.9838675861606e+014
1021	4725794 4124 1633 49606 5.102345985292 364.27310208284 122 7503 7504 915487 6869806945
1022	4729918 7460 1633 49606 5.102345985292 364.27310208284 242 0 2 122 124
1023	4737378 4456 1640 49599 5.103229985292 364.27222608284 121 1275133 1275254 154298472 1.9676048330104e+014
1024	4741834 4456 1640 49599 5.103229985292 364.27222608284 121 1275360 1275360 154318560 1.968117186816e+014
1025	4746290 28 1640 1640 5.103229985292 5.103229985292 1 0 0 0 0
1026	4746318 31 1640 1640 5.103229985292 5.103229985292 1 1072 1072 1072 1149184
1027	4746349 37 1640 1640 5.103229985292 5.103229985292 1 4294967295 4294967295 4294967295 1.844674406512e+019
1028	4746386 3730 1640 49599 5.103229985292 364.27222608284 121 0 0 0 0
1029	4750116 4459 1650 49606 5.104105985292 364.27310208284 121 0.00176 0.002136 0.21372 0.000377767616
1030	4754575 5271 1650 49606 5.104105985292 364.27310208284 121 0.00022 0.001759999851 0.201400001089 0.00034353935714558
1031	4759846 5213 1650 49606 5.104105985292 364.27310208284 121 7.4733e-008 0.65647 5.264079475638 1.8429286261841
1032	4765059 3819 1650 49606 5.104105985292 364.27310208284 121 1 2.6261 126.8088601606 139.00568675024
1033	4768878 4093 1650 49606 5.104105985292 364.27310208284 121 1072 1608 130248 140487744
1034	4772971 4819 1650 49606 5.104105985292 364.27310208284 121 4294967295 4294967295 519691042695 2.2320560318795e+021
1035	4777790 3730 1650 49606 5.104105985292 364.27310208284 121 0 0 0 0
1036	4781520 791 1914 33578 6.10870589398 147.495778253368 26 0 0 0 0
1037	4782311 977 1914 33578 6.10870589398 147.495778253368 27 7504 1534908 39915112 61254563090080
1038	4783288 869 1914 33578 6.10870589398 147.495778253368 26 7504 7504 195104 1464060416
1039	4784157 941 1914 33578 6.10870589398 147.495778253368 26 0 1527404 38185100 58324074480400
1040	4785098 980 1921 33584 6.10961389398 147.496662253368 27 1534681 1534707 41436735 63592703981719
1041	4786078 60 1921 1934 6.10961389398 6.11140589398 2 7504 7504 15008 112620032
1042	4786138 1555 1921 33584 6.10961389398 147.496662253368 51 0 1 1 1
1043	4787693 869 1921 33584 6.10961389398 147.496662253368 26 7503 7504 195103 1464045409
1044	4788562 947 1921 33584 6.10961389398 147.496662253368 26 1527177 1527203 39706951 60640075298297
1045	4789509 947 1927 33596 6.11052189398 147.497538253368 26 1527403 1527404 39712503 60657034404809
1046	4790456 947 1927 33596 6.11052189398 147.497538253368 26 1527177 1527203 39706951 60640075298297
1047	4791403 869 1927 33596 6.11052189398 147.497538253368 26 7503 7504 195103 1464045409
1048	4792272 1528 1927 33596 6.11052189398 147.497538253368 50 0 2 26 28
1049	4793800 914 1934 33584 6.11140589398 147.496662253368 25 1527177 1527202 38179748 58307726295088
1050	4794714 914 1934 33584 6.11140589398 147.496662253368 25 1527404 1527404 38185100 58324074480400
1051	4795628 27 1934 1934 6.11140589398 6.11140589398 1 0 0 0 0
1052	4795655 30 1934 1934 6.11140589398 6.11140589398 1 1072 1072 1072 1149184
1053	4795685 36 1934 1934 6.11140589398 6.11140589398 1 4294967295 4294967295 4294967295 1.844674406512e+019
1054	4795721 764 1934 33584 6.11140589398 147.496662253368 25 0 0 0 0
1055	4796485 923 1944 33596 6.11228189398 147.497538253368 25 0.00176 0.002136 0.047016 8.9187392e-005
1056	4797408 1072 1944 33596 6.11228189398 147.497538253368 25 0.00022 0.001751268776 0.034757118574 5.3492048198798e-005
1057	4798480 1075 1944 33596 6.11228189398 147.497538253368 25 0.026797324827 0.65647 5.076428876427 1.8408487936231
1058	4799555 853 1944 33596 6.11228189398 147.497538253368 25 1 2.6261 30.80983320747 43.007972073097
1059	4800408 839 1944 33596 6.11228189398 147.497538253368 25 1072 1608 27336 30166080
1060	4801247 989 1944 33596 6.11228189398 147.497538253368 25 4294967295 4294967295 107374182375 4.6116860162799e+020
1061	4802236 764 1944 33596 6.11228189398 147.497538253368 25 0 0 0 0

