version 2
run BROADCAST5c-0-20220207-17:15:55-4392
attr configname BROADCAST5c
attr datetime 20220207-17:15:55
attr experiment BROADCAST5c
attr inifile omnetpp.ini
attr iterationvars ""
attr iterationvarsf ""
attr measurement ""
attr network scenario
attr processid 4392
attr repetition 0
attr replication #0
attr resultdir results
attr runnumber 0
attr seedset 0
param *.n 5
param **.client[*].app[0].nPar 5
param **.client[*].app[0].nNPar 1
param **.client[0].app[0].numMsg 4
param **.client[0].app[0].sendFrequency 2.5
param **.client[0].app[0].startSend 0.0
param **.client[4].app[0].join 2.0
param **.client[3].app[0].leave 0.5
param **.ppp[*].ppp.queue.typename "\"DropTailQueue\""
param **.tcp.typename "\"Tcp\""
param **.tcp.nagleEnabled false
param **.client[*].app[*].fPar 0
param **.numApps 1
param **.client[*].app[*].typename "\"Node\""
param **.client[*].app[0].localPort index+1000
param **.client[*].app[0].localPortL 1234
param **.client[*].app[0].connectAddress "\"\""
param **.client[*].app[0].connectPort 1234

vector 0 scenario.client[0].ppp[0].ppp transmissionState:vector ETV
attr interpolationmode sample-hold
attr source transmissionStateChanged
attr title "tx state, vector"
vector 1 scenario.client[0].ppp[1].ppp transmissionState:vector ETV
attr interpolationmode sample-hold
attr source transmissionStateChanged
attr title "tx state, vector"
vector 2 scenario.client[0].ppp[2].ppp transmissionState:vector ETV
attr interpolationmode sample-hold
attr source transmissionStateChanged
attr title "tx state, vector"
vector 3 scenario.client[0].ppp[3].ppp transmissionState:vector ETV
attr interpolationmode sample-hold
attr source transmissionStateChanged
attr title "tx state, vector"
vector 4 scenario.client[1].ppp[0].ppp transmissionState:vector ETV
attr interpolationmode sample-hold
attr source transmissionStateChanged
attr title "tx state, vector"
vector 5 scenario.client[1].ppp[1].ppp transmissionState:vector ETV
attr interpolationmode sample-hold
attr source transmissionStateChanged
attr title "tx state, vector"
vector 6 scenario.client[1].ppp[2].ppp transmissionState:vector ETV
attr interpolationmode sample-hold
attr source transmissionStateChanged
attr title "tx state, vector"
vector 7 scenario.client[1].ppp[3].ppp transmissionState:vector ETV
attr interpolationmode sample-hold
attr source transmissionStateChanged
attr title "tx state, vector"
vector 8 scenario.client[2].ppp[0].ppp transmissionState:vector ETV
attr interpolationmode sample-hold
attr source transmissionStateChanged
attr title "tx state, vector"
vector 9 scenario.client[2].ppp[1].ppp transmissionState:vector ETV
attr interpolationmode sample-hold
attr source transmissionStateChanged
attr title "tx state, vector"
vector 10 scenario.client[2].ppp[2].ppp transmissionState:vector ETV
attr interpolationmode sample-hold
attr source transmissionStateChanged
attr title "tx state, vector"
vector 11 scenario.client[2].ppp[3].ppp transmissionState:vector ETV
attr interpolationmode sample-hold
attr source transmissionStateChanged
attr title "tx state, vector"
vector 12 scenario.client[3].ppp[0].ppp transmissionState:vector ETV
attr interpolationmode sample-hold
attr source transmissionStateChanged
attr title "tx state, vector"
vector 13 scenario.client[3].ppp[1].ppp transmissionState:vector ETV
attr interpolationmode sample-hold
attr source transmissionStateChanged
attr title "tx state, vector"
vector 14 scenario.client[3].ppp[2].ppp transmissionState:vector ETV
attr interpolationmode sample-hold
attr source transmissionStateChanged
attr title "tx state, vector"
vector 15 scenario.client[3].ppp[3].ppp transmissionState:vector ETV
attr interpolationmode sample-hold
attr source transmissionStateChanged
attr title "tx state, vector"
vector 16 scenario.client[4].ppp[0].ppp transmissionState:vector ETV
attr interpolationmode sample-hold
attr source transmissionStateChanged
attr title "tx state, vector"
vector 17 scenario.client[4].ppp[1].ppp transmissionState:vector ETV
attr interpolationmode sample-hold
attr source transmissionStateChanged
attr title "tx state, vector"
vector 18 scenario.client[4].ppp[2].ppp transmissionState:vector ETV
attr interpolationmode sample-hold
attr source transmissionStateChanged
attr title "tx state, vector"
vector 19 scenario.client[4].ppp[3].ppp transmissionState:vector ETV
attr interpolationmode sample-hold
attr source transmissionStateChanged
attr title "tx state, vector"
vector 20 scenario.client[0].tcp.conn-25 tcpRcvQueueBytes:vector ETV
attr interpolationmode sample-hold
vector 21 scenario.client[0].tcp.conn-25 rcvAdv:vector ETV
attr interpolationmode sample-hold
vector 22 scenario.client[0].tcp.conn-25 rcvWnd:vector ETV
attr interpolationmode sample-hold
vector 23 scenario.client[0].tcp.conn-25 sndAck:vector ETV
attr interpolationmode sample-hold
vector 24 scenario.client[0].ppp[0].ppp rcvdPkFromHl:vector(packetBytes) ETV
attr interpolationmode none
attr source packetReceivedFromUpper
attr title "packets received from higher layer, vector(packetBytes)"
vector 25 scenario.client[0].ppp[0].ppp.queue packetPushed:vector(packetBytes) ETV
attr interpolationmode none
attr title "packet pushed, vector(packetBytes)"
vector 26 scenario.client[0].ppp[0].ppp.queue queueLength:vector ETV
attr interpolationmode sample-hold
attr source "count(packetPushed) - count(packetPopped) - count(packetRemoved) - count(packetDropped)"
attr title "queue length, vector"
vector 27 scenario.client[0].ppp[0].ppp.queue packetPopped:vector(packetBytes) ETV
attr interpolationmode none
attr title "packet popped, vector(packetBytes)"
vector 28 scenario.client[0].ppp[0].ppp.queue queueingTime:vector ETV
attr interpolationmode none
attr source queueingTime(packetPopped)
attr title "queueing times, vector"
attr unit s
vector 29 scenario.client[0].ppp[0].ppp txPk:vector(packetBytes) ETV
attr interpolationmode none
attr source packetSentToLower
attr title "packets transmitted, vector(packetBytes)"
vector 30 scenario.client[1].ppp[0].ppp rxPkOk:vector(packetBytes) ETV
attr interpolationmode none
attr source rxPkOk
attr title "packets received OK, vector(packetBytes)"
vector 31 scenario.client[1].ppp[0].ppp passedUpPk:vector(packetBytes) ETV
attr interpolationmode none
attr source packetSentToUpper
attr title "packets passed to higher layer, vector(packetBytes)"
vector 32 scenario.client[1].tcp.conn-1 rcvSeq:vector ETV
attr interpolationmode sample-hold
vector 33 scenario.client[1].tcp.conn-1 rcvAck:vector ETV
attr interpolationmode sample-hold
vector 34 scenario.client[1].tcp.conn-26 rcvAdv:vector ETV
attr interpolationmode sample-hold
vector 35 scenario.client[1].tcp.conn-26 sndWnd:vector ETV
attr interpolationmode sample-hold
vector 36 scenario.client[1].tcp.conn-26 tcpRcvQueueBytes:vector ETV
attr interpolationmode sample-hold
vector 37 scenario.client[1].tcp.conn-26 rcvWnd:vector ETV
attr interpolationmode sample-hold
vector 38 scenario.client[1].tcp.conn-26 sndAck:vector ETV
attr interpolationmode sample-hold
vector 39 scenario.client[1].ppp[0].ppp rcvdPkFromHl:vector(packetBytes) ETV
attr interpolationmode none
attr source packetReceivedFromUpper
attr title "packets received from higher layer, vector(packetBytes)"
vector 40 scenario.client[1].ppp[0].ppp.queue packetPushed:vector(packetBytes) ETV
attr interpolationmode none
attr title "packet pushed, vector(packetBytes)"
vector 41 scenario.client[1].ppp[0].ppp.queue queueLength:vector ETV
attr interpolationmode sample-hold
attr source "count(packetPushed) - count(packetPopped) - count(packetRemoved) - count(packetDropped)"
attr title "queue length, vector"
vector 42 scenario.client[1].ppp[0].ppp.queue packetPopped:vector(packetBytes) ETV
attr interpolationmode none
attr title "packet popped, vector(packetBytes)"
vector 43 scenario.client[1].ppp[0].ppp.queue queueingTime:vector ETV
attr interpolationmode none
attr source queueingTime(packetPopped)
attr title "queueing times, vector"
attr unit s
vector 44 scenario.client[1].ppp[0].ppp txPk:vector(packetBytes) ETV
attr interpolationmode none
attr source packetSentToLower
attr title "packets transmitted, vector(packetBytes)"
vector 45 scenario.client[0].ppp[0].ppp rxPkOk:vector(packetBytes) ETV
attr interpolationmode none
attr source rxPkOk
attr title "packets received OK, vector(packetBytes)"
vector 46 scenario.client[0].ppp[0].ppp passedUpPk:vector(packetBytes) ETV
attr interpolationmode none
attr source packetSentToUpper
attr title "packets passed to higher layer, vector(packetBytes)"
vector 47 scenario.client[0].tcp.conn-25 rcvSeq:vector ETV
attr interpolationmode sample-hold
vector 48 scenario.client[0].tcp.conn-25 rcvAck:vector ETV
attr interpolationmode sample-hold
vector 49 scenario.client[0].tcp.conn-25 sndWnd:vector ETV
attr interpolationmode sample-hold
vector 50 scenario.client[0].tcp.conn-25 unacked:vector ETV
attr interpolationmode sample-hold
vector 51 scenario.client[1].tcp.conn-26 rcvSeq:vector ETV
attr interpolationmode sample-hold
vector 52 scenario.client[1].tcp.conn-26 rcvAck:vector ETV
attr interpolationmode sample-hold
vector 53 scenario.client[1].tcp.conn-26 unacked:vector ETV
attr interpolationmode sample-hold
vector 54 scenario.client[1].tcp.conn-26 cwnd:vector ETV
attr interpolationmode sample-hold
vector 55 scenario.client[1].tcp.conn-26 ssthresh:vector ETV
attr interpolationmode sample-hold
vector 56 scenario.client[1].tcp.conn-26 dupAcks:vector ETV
attr interpolationmode sample-hold
vector 57 scenario.client[1].tcp.conn-27 tcpRcvQueueBytes:vector ETV
attr interpolationmode sample-hold
vector 58 scenario.client[1].tcp.conn-27 rcvAdv:vector ETV
attr interpolationmode sample-hold
vector 59 scenario.client[1].tcp.conn-27 rcvWnd:vector ETV
attr interpolationmode sample-hold
vector 60 scenario.client[1].tcp.conn-27 sndAck:vector ETV
attr interpolationmode sample-hold
vector 61 scenario.client[0].tcp.conn-25 rtt:vector ETV
attr interpolationmode sample-hold
vector 62 scenario.client[0].tcp.conn-25 srtt:vector ETV
attr interpolationmode sample-hold
vector 63 scenario.client[0].tcp.conn-25 rttvar:vector ETV
attr interpolationmode sample-hold
vector 64 scenario.client[0].tcp.conn-25 rto:vector ETV
attr interpolationmode sample-hold
vector 65 scenario.client[0].tcp.conn-25 cwnd:vector ETV
attr interpolationmode sample-hold
vector 66 scenario.client[0].tcp.conn-25 ssthresh:vector ETV
attr interpolationmode sample-hold
vector 67 scenario.client[0].tcp.conn-25 dupAcks:vector ETV
attr interpolationmode sample-hold
vector 68 scenario.client[0].tcp.conn-0 rcvSeq:vector ETV
attr interpolationmode sample-hold
vector 69 scenario.client[0].tcp.conn-0 rcvAck:vector ETV
attr interpolationmode sample-hold
vector 70 scenario.client[0].tcp.conn-28 rcvAdv:vector ETV
attr interpolationmode sample-hold
vector 71 scenario.client[0].tcp.conn-28 sndWnd:vector ETV
attr interpolationmode sample-hold
vector 72 scenario.client[0].tcp.conn-28 tcpRcvQueueBytes:vector ETV
attr interpolationmode sample-hold
vector 73 scenario.client[0].tcp.conn-28 rcvWnd:vector ETV
attr interpolationmode sample-hold
vector 74 scenario.client[0].tcp.conn-28 sndAck:vector ETV
attr interpolationmode sample-hold
vector 75 scenario.client[1].tcp.conn-27 rcvSeq:vector ETV
attr interpolationmode sample-hold
vector 76 scenario.client[1].tcp.conn-27 rcvAck:vector ETV
attr interpolationmode sample-hold
vector 77 scenario.client[1].tcp.conn-27 sndWnd:vector ETV
attr interpolationmode sample-hold
vector 78 scenario.client[1].tcp.conn-27 unacked:vector ETV
attr interpolationmode sample-hold
vector 79 scenario.client[0].tcp.conn-28 rcvSeq:vector ETV
attr interpolationmode sample-hold
vector 80 scenario.client[0].tcp.conn-28 rcvAck:vector ETV
attr interpolationmode sample-hold
vector 81 scenario.client[0].tcp.conn-28 unacked:vector ETV
attr interpolationmode sample-hold
vector 82 scenario.client[0].tcp.conn-28 cwnd:vector ETV
attr interpolationmode sample-hold
vector 83 scenario.client[0].tcp.conn-28 ssthresh:vector ETV
attr interpolationmode sample-hold
vector 84 scenario.client[0].tcp.conn-28 dupAcks:vector ETV
attr interpolationmode sample-hold
vector 85 scenario.client[1].tcp.conn-27 rtt:vector ETV
attr interpolationmode sample-hold
vector 86 scenario.client[1].tcp.conn-27 srtt:vector ETV
attr interpolationmode sample-hold
vector 87 scenario.client[1].tcp.conn-27 rttvar:vector ETV
attr interpolationmode sample-hold
vector 88 scenario.client[1].tcp.conn-27 rto:vector ETV
attr interpolationmode sample-hold
vector 89 scenario.client[1].tcp.conn-27 cwnd:vector ETV
attr interpolationmode sample-hold
vector 90 scenario.client[1].tcp.conn-27 ssthresh:vector ETV
attr interpolationmode sample-hold
vector 91 scenario.client[1].tcp.conn-27 dupAcks:vector ETV
attr interpolationmode sample-hold
vector 92 scenario.client[0].tcp.conn-29 tcpRcvQueueBytes:vector ETV
attr interpolationmode sample-hold
vector 93 scenario.client[0].tcp.conn-29 rcvAdv:vector ETV
attr interpolationmode sample-hold
vector 94 scenario.client[0].tcp.conn-29 rcvWnd:vector ETV
attr interpolationmode sample-hold
vector 95 scenario.client[0].tcp.conn-29 sndAck:vector ETV
attr interpolationmode sample-hold
vector 96 scenario.client[0].ppp[1].ppp rcvdPkFromHl:vector(packetBytes) ETV
attr interpolationmode none
attr source packetReceivedFromUpper
attr title "packets received from higher layer, vector(packetBytes)"
vector 97 scenario.client[0].ppp[1].ppp.queue packetPushed:vector(packetBytes) ETV
attr interpolationmode none
attr title "packet pushed, vector(packetBytes)"
vector 98 scenario.client[0].ppp[1].ppp.queue queueLength:vector ETV
attr interpolationmode sample-hold
attr source "count(packetPushed) - count(packetPopped) - count(packetRemoved) - count(packetDropped)"
attr title "queue length, vector"
vector 99 scenario.client[0].ppp[1].ppp.queue packetPopped:vector(packetBytes) ETV
attr interpolationmode none
attr title "packet popped, vector(packetBytes)"
vector 100 scenario.client[0].ppp[1].ppp.queue queueingTime:vector ETV
attr interpolationmode none
attr source queueingTime(packetPopped)
attr title "queueing times, vector"
attr unit s
vector 101 scenario.client[0].ppp[1].ppp txPk:vector(packetBytes) ETV
attr interpolationmode none
attr source packetSentToLower
attr title "packets transmitted, vector(packetBytes)"
vector 102 scenario.client[2].ppp[0].ppp rxPkOk:vector(packetBytes) ETV
attr interpolationmode none
attr source rxPkOk
attr title "packets received OK, vector(packetBytes)"
vector 103 scenario.client[2].ppp[0].ppp passedUpPk:vector(packetBytes) ETV
attr interpolationmode none
attr source packetSentToUpper
attr title "packets passed to higher layer, vector(packetBytes)"
vector 104 scenario.client[2].tcp.conn-2 rcvSeq:vector ETV
attr interpolationmode sample-hold
vector 105 scenario.client[2].tcp.conn-2 rcvAck:vector ETV
attr interpolationmode sample-hold
vector 106 scenario.client[2].tcp.conn-30 rcvAdv:vector ETV
attr interpolationmode sample-hold
vector 107 scenario.client[2].tcp.conn-30 sndWnd:vector ETV
attr interpolationmode sample-hold
vector 108 scenario.client[2].tcp.conn-30 tcpRcvQueueBytes:vector ETV
attr interpolationmode sample-hold
vector 109 scenario.client[2].tcp.conn-30 rcvWnd:vector ETV
attr interpolationmode sample-hold
vector 110 scenario.client[2].tcp.conn-30 sndAck:vector ETV
attr interpolationmode sample-hold
vector 111 scenario.client[2].ppp[0].ppp rcvdPkFromHl:vector(packetBytes) ETV
attr interpolationmode none
attr source packetReceivedFromUpper
attr title "packets received from higher layer, vector(packetBytes)"
vector 112 scenario.client[2].ppp[0].ppp.queue packetPushed:vector(packetBytes) ETV
attr interpolationmode none
attr title "packet pushed, vector(packetBytes)"
vector 113 scenario.client[2].ppp[0].ppp.queue queueLength:vector ETV
attr interpolationmode sample-hold
attr source "count(packetPushed) - count(packetPopped) - count(packetRemoved) - count(packetDropped)"
attr title "queue length, vector"
vector 114 scenario.client[2].ppp[0].ppp.queue packetPopped:vector(packetBytes) ETV
attr interpolationmode none
attr title "packet popped, vector(packetBytes)"
vector 115 scenario.client[2].ppp[0].ppp.queue queueingTime:vector ETV
attr interpolationmode none
attr source queueingTime(packetPopped)
attr title "queueing times, vector"
attr unit s
vector 116 scenario.client[2].ppp[0].ppp txPk:vector(packetBytes) ETV
attr interpolationmode none
attr source packetSentToLower
attr title "packets transmitted, vector(packetBytes)"
vector 117 scenario.client[0].ppp[1].ppp rxPkOk:vector(packetBytes) ETV
attr interpolationmode none
attr source rxPkOk
attr title "packets received OK, vector(packetBytes)"
vector 118 scenario.client[0].ppp[1].ppp passedUpPk:vector(packetBytes) ETV
attr interpolationmode none
attr source packetSentToUpper
attr title "packets passed to higher layer, vector(packetBytes)"
vector 119 scenario.client[0].tcp.conn-29 rcvSeq:vector ETV
attr interpolationmode sample-hold
vector 120 scenario.client[0].tcp.conn-29 rcvAck:vector ETV
attr interpolationmode sample-hold
vector 121 scenario.client[0].tcp.conn-29 sndWnd:vector ETV
attr interpolationmode sample-hold
vector 122 scenario.client[0].tcp.conn-29 unacked:vector ETV
attr interpolationmode sample-hold
vector 123 scenario.client[2].tcp.conn-30 rcvSeq:vector ETV
attr interpolationmode sample-hold
vector 124 scenario.client[2].tcp.conn-30 rcvAck:vector ETV
attr interpolationmode sample-hold
vector 125 scenario.client[2].tcp.conn-30 unacked:vector ETV
attr interpolationmode sample-hold
vector 126 scenario.client[2].tcp.conn-30 cwnd:vector ETV
attr interpolationmode sample-hold
vector 127 scenario.client[2].tcp.conn-30 ssthresh:vector ETV
attr interpolationmode sample-hold
vector 128 scenario.client[2].tcp.conn-30 dupAcks:vector ETV
attr interpolationmode sample-hold
vector 129 scenario.client[2].tcp.conn-31 tcpRcvQueueBytes:vector ETV
attr interpolationmode sample-hold
vector 130 scenario.client[2].tcp.conn-31 rcvAdv:vector ETV
attr interpolationmode sample-hold
vector 131 scenario.client[2].tcp.conn-31 rcvWnd:vector ETV
attr interpolationmode sample-hold
vector 132 scenario.client[2].tcp.conn-31 sndAck:vector ETV
attr interpolationmode sample-hold
vector 133 scenario.client[0].tcp.conn-29 rtt:vector ETV
attr interpolationmode sample-hold
vector 134 scenario.client[0].tcp.conn-29 srtt:vector ETV
attr interpolationmode sample-hold
vector 135 scenario.client[0].tcp.conn-29 rttvar:vector ETV
attr interpolationmode sample-hold
vector 136 scenario.client[0].tcp.conn-29 rto:vector ETV
attr interpolationmode sample-hold
vector 137 scenario.client[0].tcp.conn-29 cwnd:vector ETV
attr interpolationmode sample-hold
vector 138 scenario.client[0].tcp.conn-29 ssthresh:vector ETV
attr interpolationmode sample-hold
vector 139 scenario.client[0].tcp.conn-29 dupAcks:vector ETV
attr interpolationmode sample-hold
vector 140 scenario.client[0].tcp.conn-32 rcvAdv:vector ETV
attr interpolationmode sample-hold
vector 141 scenario.client[0].tcp.conn-32 sndWnd:vector ETV
attr interpolationmode sample-hold
vector 142 scenario.client[0].tcp.conn-32 tcpRcvQueueBytes:vector ETV
attr interpolationmode sample-hold
vector 143 scenario.client[0].tcp.conn-32 rcvWnd:vector ETV
attr interpolationmode sample-hold
vector 144 scenario.client[0].tcp.conn-32 sndAck:vector ETV
attr interpolationmode sample-hold
vector 145 scenario.client[2].tcp.conn-31 rcvSeq:vector ETV
attr interpolationmode sample-hold
vector 146 scenario.client[2].tcp.conn-31 rcvAck:vector ETV
attr interpolationmode sample-hold
vector 147 scenario.client[2].tcp.conn-31 sndWnd:vector ETV
attr interpolationmode sample-hold
vector 148 scenario.client[2].tcp.conn-31 unacked:vector ETV
attr interpolationmode sample-hold
vector 149 scenario.client[0].tcp.conn-32 rcvSeq:vector ETV
attr interpolationmode sample-hold
vector 150 scenario.client[0].tcp.conn-32 rcvAck:vector ETV
attr interpolationmode sample-hold
vector 151 scenario.client[0].tcp.conn-32 unacked:vector ETV
attr interpolationmode sample-hold
vector 152 scenario.client[0].tcp.conn-32 cwnd:vector ETV
attr interpolationmode sample-hold
vector 153 scenario.client[0].tcp.conn-32 ssthresh:vector ETV
attr interpolationmode sample-hold
vector 154 scenario.client[0].tcp.conn-32 dupAcks:vector ETV
attr interpolationmode sample-hold
vector 155 scenario.client[2].tcp.conn-31 rtt:vector ETV
attr interpolationmode sample-hold
vector 156 scenario.client[2].tcp.conn-31 srtt:vector ETV
attr interpolationmode sample-hold
vector 157 scenario.client[2].tcp.conn-31 rttvar:vector ETV
attr interpolationmode sample-hold
vector 158 scenario.client[2].tcp.conn-31 rto:vector ETV
attr interpolationmode sample-hold
vector 159 scenario.client[2].tcp.conn-31 cwnd:vector ETV
attr interpolationmode sample-hold
vector 160 scenario.client[2].tcp.conn-31 ssthresh:vector ETV
attr interpolationmode sample-hold
vector 161 scenario.client[2].tcp.conn-31 dupAcks:vector ETV
attr interpolationmode sample-hold
vector 162 scenario.client[3].tcp.conn-33 tcpRcvQueueBytes:vector ETV
attr interpolationmode sample-hold
vector 163 scenario.client[3].tcp.conn-33 rcvAdv:vector ETV
attr interpolationmode sample-hold
vector 164 scenario.client[3].tcp.conn-33 rcvWnd:vector ETV
attr interpolationmode sample-hold
vector 165 scenario.client[3].tcp.conn-33 sndAck:vector ETV
attr interpolationmode sample-hold
vector 166 scenario.client[3].ppp[0].ppp rcvdPkFromHl:vector(packetBytes) ETV
attr interpolationmode none
attr source packetReceivedFromUpper
attr title "packets received from higher layer, vector(packetBytes)"
vector 167 scenario.client[3].ppp[0].ppp.queue packetPushed:vector(packetBytes) ETV
attr interpolationmode none
attr title "packet pushed, vector(packetBytes)"
vector 168 scenario.client[3].ppp[0].ppp.queue queueLength:vector ETV
attr interpolationmode sample-hold
attr source "count(packetPushed) - count(packetPopped) - count(packetRemoved) - count(packetDropped)"
attr title "queue length, vector"
vector 169 scenario.client[3].ppp[0].ppp.queue packetPopped:vector(packetBytes) ETV
attr interpolationmode none
attr title "packet popped, vector(packetBytes)"
vector 170 scenario.client[3].ppp[0].ppp.queue queueingTime:vector ETV
attr interpolationmode none
attr source queueingTime(packetPopped)
attr title "queueing times, vector"
attr unit s
vector 171 scenario.client[3].ppp[0].ppp txPk:vector(packetBytes) ETV
attr interpolationmode none
attr source packetSentToLower
attr title "packets transmitted, vector(packetBytes)"
vector 172 scenario.client[0].ppp[2].ppp rxPkOk:vector(packetBytes) ETV
attr interpolationmode none
attr source rxPkOk
attr title "packets received OK, vector(packetBytes)"
vector 173 scenario.client[0].ppp[2].ppp passedUpPk:vector(packetBytes) ETV
attr interpolationmode none
attr source packetSentToUpper
attr title "packets passed to higher layer, vector(packetBytes)"
vector 174 scenario.client[0].tcp.conn-34 rcvAdv:vector ETV
attr interpolationmode sample-hold
vector 175 scenario.client[0].tcp.conn-34 sndWnd:vector ETV
attr interpolationmode sample-hold
vector 176 scenario.client[0].tcp.conn-34 tcpRcvQueueBytes:vector ETV
attr interpolationmode sample-hold
vector 177 scenario.client[0].tcp.conn-34 rcvWnd:vector ETV
attr interpolationmode sample-hold
vector 178 scenario.client[0].tcp.conn-34 sndAck:vector ETV
attr interpolationmode sample-hold
vector 179 scenario.client[0].ppp[2].ppp rcvdPkFromHl:vector(packetBytes) ETV
attr interpolationmode none
attr source packetReceivedFromUpper
attr title "packets received from higher layer, vector(packetBytes)"
vector 180 scenario.client[0].ppp[2].ppp.queue packetPushed:vector(packetBytes) ETV
attr interpolationmode none
attr title "packet pushed, vector(packetBytes)"
vector 181 scenario.client[0].ppp[2].ppp.queue queueLength:vector ETV
attr interpolationmode sample-hold
attr source "count(packetPushed) - count(packetPopped) - count(packetRemoved) - count(packetDropped)"
attr title "queue length, vector"
vector 182 scenario.client[0].ppp[2].ppp.queue packetPopped:vector(packetBytes) ETV
attr interpolationmode none
attr title "packet popped, vector(packetBytes)"
vector 183 scenario.client[0].ppp[2].ppp.queue queueingTime:vector ETV
attr interpolationmode none
attr source queueingTime(packetPopped)
attr title "queueing times, vector"
attr unit s
vector 184 scenario.client[0].ppp[2].ppp txPk:vector(packetBytes) ETV
attr interpolationmode none
attr source packetSentToLower
attr title "packets transmitted, vector(packetBytes)"
vector 185 scenario.client[3].ppp[0].ppp rxPkOk:vector(packetBytes) ETV
attr interpolationmode none
attr source rxPkOk
attr title "packets received OK, vector(packetBytes)"
vector 186 scenario.client[3].ppp[0].ppp passedUpPk:vector(packetBytes) ETV
attr interpolationmode none
attr source packetSentToUpper
attr title "packets passed to higher layer, vector(packetBytes)"
vector 187 scenario.client[3].tcp.conn-33 rcvSeq:vector ETV
attr interpolationmode sample-hold
vector 188 scenario.client[3].tcp.conn-33 rcvAck:vector ETV
attr interpolationmode sample-hold
vector 189 scenario.client[3].tcp.conn-33 sndWnd:vector ETV
attr interpolationmode sample-hold
vector 190 scenario.client[3].tcp.conn-33 unacked:vector ETV
attr interpolationmode sample-hold
vector 191 scenario.client[0].tcp.conn-34 rcvSeq:vector ETV
attr interpolationmode sample-hold
vector 192 scenario.client[0].tcp.conn-34 rcvAck:vector ETV
attr interpolationmode sample-hold
vector 193 scenario.client[0].tcp.conn-34 unacked:vector ETV
attr interpolationmode sample-hold
vector 194 scenario.client[0].tcp.conn-34 cwnd:vector ETV
attr interpolationmode sample-hold
vector 195 scenario.client[0].tcp.conn-34 ssthresh:vector ETV
attr interpolationmode sample-hold
vector 196 scenario.client[0].tcp.conn-34 dupAcks:vector ETV
attr interpolationmode sample-hold
vector 197 scenario.client[3].tcp.conn-33 rtt:vector ETV
attr interpolationmode sample-hold
vector 198 scenario.client[3].tcp.conn-33 srtt:vector ETV
attr interpolationmode sample-hold
vector 199 scenario.client[3].tcp.conn-33 rttvar:vector ETV
attr interpolationmode sample-hold
vector 200 scenario.client[3].tcp.conn-33 rto:vector ETV
attr interpolationmode sample-hold
vector 201 scenario.client[3].tcp.conn-33 cwnd:vector ETV
attr interpolationmode sample-hold
vector 202 scenario.client[3].tcp.conn-33 ssthresh:vector ETV
attr interpolationmode sample-hold
vector 203 scenario.client[3].tcp.conn-33 dupAcks:vector ETV
attr interpolationmode sample-hold
vector 204 scenario.client[0].tcp.conn-35 tcpRcvQueueBytes:vector ETV
attr interpolationmode sample-hold
vector 205 scenario.client[0].tcp.conn-35 rcvAdv:vector ETV
attr interpolationmode sample-hold
vector 206 scenario.client[0].tcp.conn-35 rcvWnd:vector ETV
attr interpolationmode sample-hold
vector 207 scenario.client[0].tcp.conn-35 sndAck:vector ETV
attr interpolationmode sample-hold
vector 208 scenario.client[3].tcp.conn-3 rcvSeq:vector ETV
attr interpolationmode sample-hold
vector 209 scenario.client[3].tcp.conn-3 rcvAck:vector ETV
attr interpolationmode sample-hold
vector 210 scenario.client[3].tcp.conn-36 rcvAdv:vector ETV
attr interpolationmode sample-hold
vector 211 scenario.client[3].tcp.conn-36 sndWnd:vector ETV
attr interpolationmode sample-hold
vector 212 scenario.client[3].tcp.conn-36 tcpRcvQueueBytes:vector ETV
attr interpolationmode sample-hold
vector 213 scenario.client[3].tcp.conn-36 rcvWnd:vector ETV
attr interpolationmode sample-hold
vector 214 scenario.client[3].tcp.conn-36 sndAck:vector ETV
attr interpolationmode sample-hold
vector 215 scenario.client[0].tcp.conn-35 rcvSeq:vector ETV
attr interpolationmode sample-hold
vector 216 scenario.client[0].tcp.conn-35 rcvAck:vector ETV
attr interpolationmode sample-hold
vector 217 scenario.client[0].tcp.conn-35 sndWnd:vector ETV
attr interpolationmode sample-hold
vector 218 scenario.client[0].tcp.conn-35 unacked:vector ETV
attr interpolationmode sample-hold
vector 219 scenario.client[3].tcp.conn-36 rcvSeq:vector ETV
attr interpolationmode sample-hold
vector 220 scenario.client[3].tcp.conn-36 rcvAck:vector ETV
attr interpolationmode sample-hold
vector 221 scenario.client[3].tcp.conn-36 unacked:vector ETV
attr interpolationmode sample-hold
vector 222 scenario.client[3].tcp.conn-36 cwnd:vector ETV
attr interpolationmode sample-hold
vector 223 scenario.client[3].tcp.conn-36 ssthresh:vector ETV
attr interpolationmode sample-hold
vector 224 scenario.client[3].tcp.conn-36 dupAcks:vector ETV
attr interpolationmode sample-hold
vector 225 scenario.client[0].tcp.conn-35 rtt:vector ETV
attr interpolationmode sample-hold
vector 226 scenario.client[0].tcp.conn-35 srtt:vector ETV
attr interpolationmode sample-hold
vector 227 scenario.client[0].tcp.conn-35 rttvar:vector ETV
attr interpolationmode sample-hold
vector 228 scenario.client[0].tcp.conn-35 rto:vector ETV
attr interpolationmode sample-hold
vector 229 scenario.client[0].tcp.conn-35 cwnd:vector ETV
attr interpolationmode sample-hold
vector 230 scenario.client[0].tcp.conn-35 ssthresh:vector ETV
attr interpolationmode sample-hold
vector 231 scenario.client[0].tcp.conn-35 dupAcks:vector ETV
attr interpolationmode sample-hold
vector 232 scenario.client[3].tcp.conn-37 tcpRcvQueueBytes:vector ETV
attr interpolationmode sample-hold
vector 233 scenario.client[3].tcp.conn-37 rcvAdv:vector ETV
attr interpolationmode sample-hold
vector 234 scenario.client[3].tcp.conn-37 rcvWnd:vector ETV
attr interpolationmode sample-hold
vector 235 scenario.client[3].tcp.conn-37 sndAck:vector ETV
attr interpolationmode sample-hold
vector 236 scenario.client[3].ppp[1].ppp rcvdPkFromHl:vector(packetBytes) ETV
attr interpolationmode none
attr source packetReceivedFromUpper
attr title "packets received from higher layer, vector(packetBytes)"
vector 237 scenario.client[3].ppp[1].ppp.queue packetPushed:vector(packetBytes) ETV
attr interpolationmode none
attr title "packet pushed, vector(packetBytes)"
vector 238 scenario.client[3].ppp[1].ppp.queue queueLength:vector ETV
attr interpolationmode sample-hold
attr source "count(packetPushed) - count(packetPopped) - count(packetRemoved) - count(packetDropped)"
attr title "queue length, vector"
vector 239 scenario.client[3].ppp[1].ppp.queue packetPopped:vector(packetBytes) ETV
attr interpolationmode none
attr title "packet popped, vector(packetBytes)"
vector 240 scenario.client[3].ppp[1].ppp.queue queueingTime:vector ETV
attr interpolationmode none
attr source queueingTime(packetPopped)
attr title "queueing times, vector"
attr unit s
vector 241 scenario.client[3].ppp[1].ppp txPk:vector(packetBytes) ETV
attr interpolationmode none
attr source packetSentToLower
attr title "packets transmitted, vector(packetBytes)"
vector 242 scenario.client[1].ppp[2].ppp rxPkOk:vector(packetBytes) ETV
attr interpolationmode none
attr source rxPkOk
attr title "packets received OK, vector(packetBytes)"
vector 243 scenario.client[1].ppp[2].ppp passedUpPk:vector(packetBytes) ETV
attr interpolationmode none
attr source packetSentToUpper
attr title "packets passed to higher layer, vector(packetBytes)"
vector 244 scenario.client[1].tcp.conn-38 rcvAdv:vector ETV
attr interpolationmode sample-hold
vector 245 scenario.client[1].tcp.conn-38 sndWnd:vector ETV
attr interpolationmode sample-hold
vector 246 scenario.client[1].tcp.conn-38 tcpRcvQueueBytes:vector ETV
attr interpolationmode sample-hold
vector 247 scenario.client[1].tcp.conn-38 rcvWnd:vector ETV
attr interpolationmode sample-hold
vector 248 scenario.client[1].tcp.conn-38 sndAck:vector ETV
attr interpolationmode sample-hold
vector 249 scenario.client[1].ppp[2].ppp rcvdPkFromHl:vector(packetBytes) ETV
attr interpolationmode none
attr source packetReceivedFromUpper
attr title "packets received from higher layer, vector(packetBytes)"
vector 250 scenario.client[1].ppp[2].ppp.queue packetPushed:vector(packetBytes) ETV
attr interpolationmode none
attr title "packet pushed, vector(packetBytes)"
vector 251 scenario.client[1].ppp[2].ppp.queue queueLength:vector ETV
attr interpolationmode sample-hold
attr source "count(packetPushed) - count(packetPopped) - count(packetRemoved) - count(packetDropped)"
attr title "queue length, vector"
vector 252 scenario.client[1].ppp[2].ppp.queue packetPopped:vector(packetBytes) ETV
attr interpolationmode none
attr title "packet popped, vector(packetBytes)"
vector 253 scenario.client[1].ppp[2].ppp.queue queueingTime:vector ETV
attr interpolationmode none
attr source queueingTime(packetPopped)
attr title "queueing times, vector"
attr unit s
vector 254 scenario.client[1].ppp[2].ppp txPk:vector(packetBytes) ETV
attr interpolationmode none
attr source packetSentToLower
attr title "packets transmitted, vector(packetBytes)"
vector 255 scenario.client[3].ppp[1].ppp rxPkOk:vector(packetBytes) ETV
attr interpolationmode none
attr source rxPkOk
attr title "packets received OK, vector(packetBytes)"
vector 256 scenario.client[3].ppp[1].ppp passedUpPk:vector(packetBytes) ETV
attr interpolationmode none
attr source packetSentToUpper
attr title "packets passed to higher layer, vector(packetBytes)"
vector 257 scenario.client[3].tcp.conn-37 rcvSeq:vector ETV
attr interpolationmode sample-hold
vector 258 scenario.client[3].tcp.conn-37 rcvAck:vector ETV
attr interpolationmode sample-hold
vector 259 scenario.client[3].tcp.conn-37 sndWnd:vector ETV
attr interpolationmode sample-hold
vector 260 scenario.client[3].tcp.conn-37 unacked:vector ETV
attr interpolationmode sample-hold
vector 261 scenario.client[1].tcp.conn-38 rcvSeq:vector ETV
attr interpolationmode sample-hold
vector 262 scenario.client[1].tcp.conn-38 rcvAck:vector ETV
attr interpolationmode sample-hold
vector 263 scenario.client[1].tcp.conn-38 unacked:vector ETV
attr interpolationmode sample-hold
vector 264 scenario.client[1].tcp.conn-38 cwnd:vector ETV
attr interpolationmode sample-hold
vector 265 scenario.client[1].tcp.conn-38 ssthresh:vector ETV
attr interpolationmode sample-hold
vector 266 scenario.client[1].tcp.conn-38 dupAcks:vector ETV
attr interpolationmode sample-hold
vector 267 scenario.client[3].tcp.conn-37 rtt:vector ETV
attr interpolationmode sample-hold
vector 268 scenario.client[3].tcp.conn-37 srtt:vector ETV
attr interpolationmode sample-hold
vector 269 scenario.client[3].tcp.conn-37 rttvar:vector ETV
attr interpolationmode sample-hold
vector 270 scenario.client[3].tcp.conn-37 rto:vector ETV
attr interpolationmode sample-hold
vector 271 scenario.client[3].tcp.conn-37 cwnd:vector ETV
attr interpolationmode sample-hold
vector 272 scenario.client[3].tcp.conn-37 ssthresh:vector ETV
attr interpolationmode sample-hold
vector 273 scenario.client[3].tcp.conn-37 dupAcks:vector ETV
attr interpolationmode sample-hold
vector 274 scenario.client[1].tcp.conn-39 tcpRcvQueueBytes:vector ETV
attr interpolationmode sample-hold
vector 275 scenario.client[1].tcp.conn-39 rcvAdv:vector ETV
attr interpolationmode sample-hold
vector 276 scenario.client[1].tcp.conn-39 rcvWnd:vector ETV
attr interpolationmode sample-hold
vector 277 scenario.client[1].tcp.conn-39 sndAck:vector ETV
attr interpolationmode sample-hold
vector 278 scenario.client[3].tcp.conn-40 rcvAdv:vector ETV
attr interpolationmode sample-hold
vector 279 scenario.client[3].tcp.conn-40 sndWnd:vector ETV
attr interpolationmode sample-hold
vector 280 scenario.client[3].tcp.conn-40 tcpRcvQueueBytes:vector ETV
attr interpolationmode sample-hold
vector 281 scenario.client[3].tcp.conn-40 rcvWnd:vector ETV
attr interpolationmode sample-hold
vector 282 scenario.client[3].tcp.conn-40 sndAck:vector ETV
attr interpolationmode sample-hold
vector 283 scenario.client[3].tcp.conn-41 tcpRcvQueueBytes:vector ETV
attr interpolationmode sample-hold
vector 284 scenario.client[3].tcp.conn-41 rcvAdv:vector ETV
attr interpolationmode sample-hold
vector 285 scenario.client[3].tcp.conn-41 rcvWnd:vector ETV
attr interpolationmode sample-hold
vector 286 scenario.client[3].tcp.conn-41 sndAck:vector ETV
attr interpolationmode sample-hold
vector 287 scenario.client[3].ppp[2].ppp rcvdPkFromHl:vector(packetBytes) ETV
attr interpolationmode none
attr source packetReceivedFromUpper
attr title "packets received from higher layer, vector(packetBytes)"
vector 288 scenario.client[3].ppp[2].ppp.queue packetPushed:vector(packetBytes) ETV
attr interpolationmode none
attr title "packet pushed, vector(packetBytes)"
vector 289 scenario.client[3].ppp[2].ppp.queue queueLength:vector ETV
attr interpolationmode sample-hold
attr source "count(packetPushed) - count(packetPopped) - count(packetRemoved) - count(packetDropped)"
attr title "queue length, vector"
vector 290 scenario.client[3].ppp[2].ppp.queue packetPopped:vector(packetBytes) ETV
attr interpolationmode none
attr title "packet popped, vector(packetBytes)"
vector 291 scenario.client[3].ppp[2].ppp.queue queueingTime:vector ETV
attr interpolationmode none
attr source queueingTime(packetPopped)
attr title "queueing times, vector"
attr unit s
vector 292 scenario.client[3].ppp[2].ppp txPk:vector(packetBytes) ETV
attr interpolationmode none
attr source packetSentToLower
attr title "packets transmitted, vector(packetBytes)"
vector 293 scenario.client[1].tcp.conn-39 rcvSeq:vector ETV
attr interpolationmode sample-hold
vector 294 scenario.client[1].tcp.conn-39 rcvAck:vector ETV
attr interpolationmode sample-hold
vector 295 scenario.client[1].tcp.conn-39 sndWnd:vector ETV
attr interpolationmode sample-hold
vector 296 scenario.client[1].tcp.conn-39 unacked:vector ETV
attr interpolationmode sample-hold
vector 297 scenario.client[2].ppp[2].ppp rxPkOk:vector(packetBytes) ETV
attr interpolationmode none
attr source rxPkOk
attr title "packets received OK, vector(packetBytes)"
vector 298 scenario.client[2].ppp[2].ppp passedUpPk:vector(packetBytes) ETV
attr interpolationmode none
attr source packetSentToUpper
attr title "packets passed to higher layer, vector(packetBytes)"
vector 299 scenario.client[2].tcp.conn-42 rcvAdv:vector ETV
attr interpolationmode sample-hold
vector 300 scenario.client[2].tcp.conn-42 sndWnd:vector ETV
attr interpolationmode sample-hold
vector 301 scenario.client[2].tcp.conn-42 tcpRcvQueueBytes:vector ETV
attr interpolationmode sample-hold
vector 302 scenario.client[2].tcp.conn-42 rcvWnd:vector ETV
attr interpolationmode sample-hold
vector 303 scenario.client[2].tcp.conn-42 sndAck:vector ETV
attr interpolationmode sample-hold
vector 304 scenario.client[2].ppp[2].ppp rcvdPkFromHl:vector(packetBytes) ETV
attr interpolationmode none
attr source packetReceivedFromUpper
attr title "packets received from higher layer, vector(packetBytes)"
vector 305 scenario.client[2].ppp[2].ppp.queue packetPushed:vector(packetBytes) ETV
attr interpolationmode none
attr title "packet pushed, vector(packetBytes)"
vector 306 scenario.client[2].ppp[2].ppp.queue queueLength:vector ETV
attr interpolationmode sample-hold
attr source "count(packetPushed) - count(packetPopped) - count(packetRemoved) - count(packetDropped)"
attr title "queue length, vector"
vector 307 scenario.client[2].ppp[2].ppp.queue packetPopped:vector(packetBytes) ETV
attr interpolationmode none
attr title "packet popped, vector(packetBytes)"
vector 308 scenario.client[2].ppp[2].ppp.queue queueingTime:vector ETV
attr interpolationmode none
attr source queueingTime(packetPopped)
attr title "queueing times, vector"
attr unit s
vector 309 scenario.client[2].ppp[2].ppp txPk:vector(packetBytes) ETV
attr interpolationmode none
attr source packetSentToLower
attr title "packets transmitted, vector(packetBytes)"
vector 310 scenario.client[3].tcp.conn-40 rcvSeq:vector ETV
attr interpolationmode sample-hold
vector 311 scenario.client[3].tcp.conn-40 rcvAck:vector ETV
attr interpolationmode sample-hold
vector 312 scenario.client[3].tcp.conn-40 unacked:vector ETV
attr interpolationmode sample-hold
vector 313 scenario.client[3].tcp.conn-40 cwnd:vector ETV
attr interpolationmode sample-hold
vector 314 scenario.client[3].tcp.conn-40 ssthresh:vector ETV
attr interpolationmode sample-hold
vector 315 scenario.client[3].tcp.conn-40 dupAcks:vector ETV
attr interpolationmode sample-hold
vector 316 scenario.client[3].ppp[2].ppp rxPkOk:vector(packetBytes) ETV
attr interpolationmode none
attr source rxPkOk
attr title "packets received OK, vector(packetBytes)"
vector 317 scenario.client[3].ppp[2].ppp passedUpPk:vector(packetBytes) ETV
attr interpolationmode none
attr source packetSentToUpper
attr title "packets passed to higher layer, vector(packetBytes)"
vector 318 scenario.client[3].tcp.conn-41 rcvSeq:vector ETV
attr interpolationmode sample-hold
vector 319 scenario.client[3].tcp.conn-41 rcvAck:vector ETV
attr interpolationmode sample-hold
vector 320 scenario.client[3].tcp.conn-41 sndWnd:vector ETV
attr interpolationmode sample-hold
vector 321 scenario.client[3].tcp.conn-41 unacked:vector ETV
attr interpolationmode sample-hold
vector 322 scenario.client[1].tcp.conn-39 rtt:vector ETV
attr interpolationmode sample-hold
vector 323 scenario.client[1].tcp.conn-39 srtt:vector ETV
attr interpolationmode sample-hold
vector 324 scenario.client[1].tcp.conn-39 rttvar:vector ETV
attr interpolationmode sample-hold
vector 325 scenario.client[1].tcp.conn-39 rto:vector ETV
attr interpolationmode sample-hold
vector 326 scenario.client[1].tcp.conn-39 cwnd:vector ETV
attr interpolationmode sample-hold
vector 327 scenario.client[1].tcp.conn-39 ssthresh:vector ETV
attr interpolationmode sample-hold
vector 328 scenario.client[1].tcp.conn-39 dupAcks:vector ETV
attr interpolationmode sample-hold
vector 329 scenario.client[2].tcp.conn-42 rcvSeq:vector ETV
attr interpolationmode sample-hold
vector 330 scenario.client[2].tcp.conn-42 rcvAck:vector ETV
attr interpolationmode sample-hold
vector 331 scenario.client[2].tcp.conn-42 unacked:vector ETV
attr interpolationmode sample-hold
vector 332 scenario.client[2].tcp.conn-42 cwnd:vector ETV
attr interpolationmode sample-hold
vector 333 scenario.client[2].tcp.conn-42 ssthresh:vector ETV
attr interpolationmode sample-hold
vector 334 scenario.client[2].tcp.conn-42 dupAcks:vector ETV
attr interpolationmode sample-hold
vector 335 scenario.client[3].tcp.conn-41 rtt:vector ETV
attr interpolationmode sample-hold
vector 336 scenario.client[3].tcp.conn-41 srtt:vector ETV
attr interpolationmode sample-hold
vector 337 scenario.client[3].tcp.conn-41 rttvar:vector ETV
attr interpolationmode sample-hold
vector 338 scenario.client[3].tcp.conn-41 rto:vector ETV
attr interpolationmode sample-hold
vector 339 scenario.client[3].tcp.conn-41 cwnd:vector ETV
attr interpolationmode sample-hold
vector 340 scenario.client[3].tcp.conn-41 ssthresh:vector ETV
attr interpolationmode sample-hold
vector 341 scenario.client[3].tcp.conn-41 dupAcks:vector ETV
attr interpolationmode sample-hold
vector 342 scenario.client[2].tcp.conn-43 tcpRcvQueueBytes:vector ETV
attr interpolationmode sample-hold
vector 343 scenario.client[2].tcp.conn-43 rcvAdv:vector ETV
attr interpolationmode sample-hold
vector 344 scenario.client[2].tcp.conn-43 rcvWnd:vector ETV
attr interpolationmode sample-hold
vector 345 scenario.client[2].tcp.conn-43 sndAck:vector ETV
attr interpolationmode sample-hold
vector 346 scenario.client[3].tcp.conn-44 rcvAdv:vector ETV
attr interpolationmode sample-hold
vector 347 scenario.client[3].tcp.conn-44 sndWnd:vector ETV
attr interpolationmode sample-hold
vector 348 scenario.client[3].tcp.conn-44 tcpRcvQueueBytes:vector ETV
attr interpolationmode sample-hold
vector 349 scenario.client[3].tcp.conn-44 rcvWnd:vector ETV
attr interpolationmode sample-hold
vector 350 scenario.client[3].tcp.conn-44 sndAck:vector ETV
attr interpolationmode sample-hold
vector 351 scenario.client[2].tcp.conn-43 rcvSeq:vector ETV
attr interpolationmode sample-hold
vector 352 scenario.client[2].tcp.conn-43 rcvAck:vector ETV
attr interpolationmode sample-hold
vector 353 scenario.client[2].tcp.conn-43 sndWnd:vector ETV
attr interpolationmode sample-hold
vector 354 scenario.client[2].tcp.conn-43 unacked:vector ETV
attr interpolationmode sample-hold
vector 355 scenario.client[3].tcp.conn-44 rcvSeq:vector ETV
attr interpolationmode sample-hold
vector 356 scenario.client[3].tcp.conn-44 rcvAck:vector ETV
attr interpolationmode sample-hold
vector 357 scenario.client[3].tcp.conn-44 unacked:vector ETV
attr interpolationmode sample-hold
vector 358 scenario.client[3].tcp.conn-44 cwnd:vector ETV
attr interpolationmode sample-hold
vector 359 scenario.client[3].tcp.conn-44 ssthresh:vector ETV
attr interpolationmode sample-hold
vector 360 scenario.client[3].tcp.conn-44 dupAcks:vector ETV
attr interpolationmode sample-hold
vector 361 scenario.client[2].tcp.conn-43 rtt:vector ETV
attr interpolationmode sample-hold
vector 362 scenario.client[2].tcp.conn-43 srtt:vector ETV
attr interpolationmode sample-hold
vector 363 scenario.client[2].tcp.conn-43 rttvar:vector ETV
attr interpolationmode sample-hold
vector 364 scenario.client[2].tcp.conn-43 rto:vector ETV
attr interpolationmode sample-hold
vector 365 scenario.client[2].tcp.conn-43 cwnd:vector ETV
attr interpolationmode sample-hold
vector 366 scenario.client[2].tcp.conn-43 ssthresh:vector ETV
attr interpolationmode sample-hold
vector 367 scenario.client[2].tcp.conn-43 dupAcks:vector ETV
attr interpolationmode sample-hold
vector 368 scenario.client[4].tcp.conn-45 tcpRcvQueueBytes:vector ETV
attr interpolationmode sample-hold
vector 369 scenario.client[4].tcp.conn-45 rcvAdv:vector ETV
attr interpolationmode sample-hold
vector 370 scenario.client[4].tcp.conn-45 rcvWnd:vector ETV
attr interpolationmode sample-hold
vector 371 scenario.client[4].tcp.conn-45 sndAck:vector ETV
attr interpolationmode sample-hold
vector 372 scenario.client[4].ppp[0].ppp rcvdPkFromHl:vector(packetBytes) ETV
attr interpolationmode none
attr source packetReceivedFromUpper
attr title "packets received from higher layer, vector(packetBytes)"
vector 373 scenario.client[4].ppp[0].ppp.queue packetPushed:vector(packetBytes) ETV
attr interpolationmode none
attr title "packet pushed, vector(packetBytes)"
vector 374 scenario.client[4].ppp[0].ppp.queue queueLength:vector ETV
attr interpolationmode sample-hold
attr source "count(packetPushed) - count(packetPopped) - count(packetRemoved) - count(packetDropped)"
attr title "queue length, vector"
vector 375 scenario.client[4].ppp[0].ppp.queue packetPopped:vector(packetBytes) ETV
attr interpolationmode none
attr title "packet popped, vector(packetBytes)"
vector 376 scenario.client[4].ppp[0].ppp.queue queueingTime:vector ETV
attr interpolationmode none
attr source queueingTime(packetPopped)
attr title "queueing times, vector"
attr unit s
vector 377 scenario.client[4].ppp[0].ppp txPk:vector(packetBytes) ETV
attr interpolationmode none
attr source packetSentToLower
attr title "packets transmitted, vector(packetBytes)"
vector 378 scenario.client[0].ppp[3].ppp rxPkOk:vector(packetBytes) ETV
attr interpolationmode none
attr source rxPkOk
attr title "packets received OK, vector(packetBytes)"
vector 379 scenario.client[0].ppp[3].ppp passedUpPk:vector(packetBytes) ETV
attr interpolationmode none
attr source packetSentToUpper
attr title "packets passed to higher layer, vector(packetBytes)"
vector 380 scenario.client[0].tcp.conn-46 rcvAdv:vector ETV
attr interpolationmode sample-hold
vector 381 scenario.client[0].tcp.conn-46 sndWnd:vector ETV
attr interpolationmode sample-hold
vector 382 scenario.client[0].tcp.conn-46 tcpRcvQueueBytes:vector ETV
attr interpolationmode sample-hold
vector 383 scenario.client[0].tcp.conn-46 rcvWnd:vector ETV
attr interpolationmode sample-hold
vector 384 scenario.client[0].tcp.conn-46 sndAck:vector ETV
attr interpolationmode sample-hold
vector 385 scenario.client[0].ppp[3].ppp rcvdPkFromHl:vector(packetBytes) ETV
attr interpolationmode none
attr source packetReceivedFromUpper
attr title "packets received from higher layer, vector(packetBytes)"
vector 386 scenario.client[0].ppp[3].ppp.queue packetPushed:vector(packetBytes) ETV
attr interpolationmode none
attr title "packet pushed, vector(packetBytes)"
vector 387 scenario.client[0].ppp[3].ppp.queue queueLength:vector ETV
attr interpolationmode sample-hold
attr source "count(packetPushed) - count(packetPopped) - count(packetRemoved) - count(packetDropped)"
attr title "queue length, vector"
vector 388 scenario.client[0].ppp[3].ppp.queue packetPopped:vector(packetBytes) ETV
attr interpolationmode none
attr title "packet popped, vector(packetBytes)"
vector 389 scenario.client[0].ppp[3].ppp.queue queueingTime:vector ETV
attr interpolationmode none
attr source queueingTime(packetPopped)
attr title "queueing times, vector"
attr unit s
vector 390 scenario.client[0].ppp[3].ppp txPk:vector(packetBytes) ETV
attr interpolationmode none
attr source packetSentToLower
attr title "packets transmitted, vector(packetBytes)"
vector 391 scenario.client[4].ppp[0].ppp rxPkOk:vector(packetBytes) ETV
attr interpolationmode none
attr source rxPkOk
attr title "packets received OK, vector(packetBytes)"
vector 392 scenario.client[4].ppp[0].ppp passedUpPk:vector(packetBytes) ETV
attr interpolationmode none
attr source packetSentToUpper
attr title "packets passed to higher layer, vector(packetBytes)"
vector 393 scenario.client[4].tcp.conn-45 rcvSeq:vector ETV
attr interpolationmode sample-hold
vector 394 scenario.client[4].tcp.conn-45 rcvAck:vector ETV
attr interpolationmode sample-hold
vector 395 scenario.client[4].tcp.conn-45 sndWnd:vector ETV
attr interpolationmode sample-hold
vector 396 scenario.client[4].tcp.conn-45 unacked:vector ETV
attr interpolationmode sample-hold
vector 397 scenario.client[0].tcp.conn-46 rcvSeq:vector ETV
attr interpolationmode sample-hold
vector 398 scenario.client[0].tcp.conn-46 rcvAck:vector ETV
attr interpolationmode sample-hold
vector 399 scenario.client[0].tcp.conn-46 unacked:vector ETV
attr interpolationmode sample-hold
vector 400 scenario.client[0].tcp.conn-46 cwnd:vector ETV
attr interpolationmode sample-hold
vector 401 scenario.client[0].tcp.conn-46 ssthresh:vector ETV
attr interpolationmode sample-hold
vector 402 scenario.client[0].tcp.conn-46 dupAcks:vector ETV
attr interpolationmode sample-hold
vector 403 scenario.client[4].tcp.conn-45 rtt:vector ETV
attr interpolationmode sample-hold
vector 404 scenario.client[4].tcp.conn-45 srtt:vector ETV
attr interpolationmode sample-hold
vector 405 scenario.client[4].tcp.conn-45 rttvar:vector ETV
attr interpolationmode sample-hold
vector 406 scenario.client[4].tcp.conn-45 rto:vector ETV
attr interpolationmode sample-hold
vector 407 scenario.client[4].tcp.conn-45 cwnd:vector ETV
attr interpolationmode sample-hold
vector 408 scenario.client[4].tcp.conn-45 ssthresh:vector ETV
attr interpolationmode sample-hold
vector 409 scenario.client[4].tcp.conn-45 dupAcks:vector ETV
attr interpolationmode sample-hold
vector 410 scenario.client[4].tcp.conn-47 tcpRcvQueueBytes:vector ETV
attr interpolationmode sample-hold
vector 411 scenario.client[4].tcp.conn-47 rcvAdv:vector ETV
attr interpolationmode sample-hold
vector 412 scenario.client[4].tcp.conn-47 rcvWnd:vector ETV
attr interpolationmode sample-hold
vector 413 scenario.client[4].tcp.conn-47 sndAck:vector ETV
attr interpolationmode sample-hold
vector 414 scenario.client[4].ppp[1].ppp rcvdPkFromHl:vector(packetBytes) ETV
attr interpolationmode none
attr source packetReceivedFromUpper
attr title "packets received from higher layer, vector(packetBytes)"
vector 415 scenario.client[4].ppp[1].ppp.queue packetPushed:vector(packetBytes) ETV
attr interpolationmode none
attr title "packet pushed, vector(packetBytes)"
vector 416 scenario.client[4].ppp[1].ppp.queue queueLength:vector ETV
attr interpolationmode sample-hold
attr source "count(packetPushed) - count(packetPopped) - count(packetRemoved) - count(packetDropped)"
attr title "queue length, vector"
vector 417 scenario.client[4].ppp[1].ppp.queue packetPopped:vector(packetBytes) ETV
attr interpolationmode none
attr title "packet popped, vector(packetBytes)"
vector 418 scenario.client[4].ppp[1].ppp.queue queueingTime:vector ETV
attr interpolationmode none
attr source queueingTime(packetPopped)
attr title "queueing times, vector"
attr unit s
vector 419 scenario.client[4].ppp[1].ppp txPk:vector(packetBytes) ETV
attr interpolationmode none
attr source packetSentToLower
attr title "packets transmitted, vector(packetBytes)"
vector 420 scenario.client[1].ppp[3].ppp rxPkOk:vector(packetBytes) ETV
attr interpolationmode none
attr source rxPkOk
attr title "packets received OK, vector(packetBytes)"
vector 421 scenario.client[1].ppp[3].ppp passedUpPk:vector(packetBytes) ETV
attr interpolationmode none
attr source packetSentToUpper
attr title "packets passed to higher layer, vector(packetBytes)"
vector 422 scenario.client[1].tcp.conn-48 rcvAdv:vector ETV
attr interpolationmode sample-hold
vector 423 scenario.client[1].tcp.conn-48 sndWnd:vector ETV
attr interpolationmode sample-hold
vector 424 scenario.client[1].tcp.conn-48 tcpRcvQueueBytes:vector ETV
attr interpolationmode sample-hold
vector 425 scenario.client[1].tcp.conn-48 rcvWnd:vector ETV
attr interpolationmode sample-hold
vector 426 scenario.client[1].tcp.conn-48 sndAck:vector ETV
attr interpolationmode sample-hold
vector 427 scenario.client[1].ppp[3].ppp rcvdPkFromHl:vector(packetBytes) ETV
attr interpolationmode none
attr source packetReceivedFromUpper
attr title "packets received from higher layer, vector(packetBytes)"
vector 428 scenario.client[1].ppp[3].ppp.queue packetPushed:vector(packetBytes) ETV
attr interpolationmode none
attr title "packet pushed, vector(packetBytes)"
vector 429 scenario.client[1].ppp[3].ppp.queue queueLength:vector ETV
attr interpolationmode sample-hold
attr source "count(packetPushed) - count(packetPopped) - count(packetRemoved) - count(packetDropped)"
attr title "queue length, vector"
vector 430 scenario.client[1].ppp[3].ppp.queue packetPopped:vector(packetBytes) ETV
attr interpolationmode none
attr title "packet popped, vector(packetBytes)"
vector 431 scenario.client[1].ppp[3].ppp.queue queueingTime:vector ETV
attr interpolationmode none
attr source queueingTime(packetPopped)
attr title "queueing times, vector"
attr unit s
vector 432 scenario.client[1].ppp[3].ppp txPk:vector(packetBytes) ETV
attr interpolationmode none
attr source packetSentToLower
attr title "packets transmitted, vector(packetBytes)"
vector 433 scenario.client[4].ppp[1].ppp rxPkOk:vector(packetBytes) ETV
attr interpolationmode none
attr source rxPkOk
attr title "packets received OK, vector(packetBytes)"
vector 434 scenario.client[4].ppp[1].ppp passedUpPk:vector(packetBytes) ETV
attr interpolationmode none
attr source packetSentToUpper
attr title "packets passed to higher layer, vector(packetBytes)"
vector 435 scenario.client[4].tcp.conn-47 rcvSeq:vector ETV
attr interpolationmode sample-hold
vector 436 scenario.client[4].tcp.conn-47 rcvAck:vector ETV
attr interpolationmode sample-hold
vector 437 scenario.client[4].tcp.conn-47 sndWnd:vector ETV
attr interpolationmode sample-hold
vector 438 scenario.client[4].tcp.conn-47 unacked:vector ETV
attr interpolationmode sample-hold
vector 439 scenario.client[1].tcp.conn-48 rcvSeq:vector ETV
attr interpolationmode sample-hold
vector 440 scenario.client[1].tcp.conn-48 rcvAck:vector ETV
attr interpolationmode sample-hold
vector 441 scenario.client[1].tcp.conn-48 unacked:vector ETV
attr interpolationmode sample-hold
vector 442 scenario.client[1].tcp.conn-48 cwnd:vector ETV
attr interpolationmode sample-hold
vector 443 scenario.client[1].tcp.conn-48 ssthresh:vector ETV
attr interpolationmode sample-hold
vector 444 scenario.client[1].tcp.conn-48 dupAcks:vector ETV
attr interpolationmode sample-hold
vector 445 scenario.client[4].tcp.conn-47 rtt:vector ETV
attr interpolationmode sample-hold
vector 446 scenario.client[4].tcp.conn-47 srtt:vector ETV
attr interpolationmode sample-hold
vector 447 scenario.client[4].tcp.conn-47 rttvar:vector ETV
attr interpolationmode sample-hold
vector 448 scenario.client[4].tcp.conn-47 rto:vector ETV
attr interpolationmode sample-hold
vector 449 scenario.client[4].tcp.conn-47 cwnd:vector ETV
attr interpolationmode sample-hold
vector 450 scenario.client[4].tcp.conn-47 ssthresh:vector ETV
attr interpolationmode sample-hold
vector 451 scenario.client[4].tcp.conn-47 dupAcks:vector ETV
attr interpolationmode sample-hold
vector 452 scenario.client[1].tcp.conn-49 tcpRcvQueueBytes:vector ETV
attr interpolationmode sample-hold
vector 453 scenario.client[1].tcp.conn-49 rcvAdv:vector ETV
attr interpolationmode sample-hold
vector 454 scenario.client[1].tcp.conn-49 rcvWnd:vector ETV
attr interpolationmode sample-hold
vector 455 scenario.client[1].tcp.conn-49 sndAck:vector ETV
attr interpolationmode sample-hold
vector 456 scenario.client[1].ppp[1].ppp rcvdPkFromHl:vector(packetBytes) ETV
attr interpolationmode none
attr source packetReceivedFromUpper
attr title "packets received from higher layer, vector(packetBytes)"
vector 457 scenario.client[1].ppp[1].ppp.queue packetPushed:vector(packetBytes) ETV
attr interpolationmode none
attr title "packet pushed, vector(packetBytes)"
vector 458 scenario.client[1].ppp[1].ppp.queue queueLength:vector ETV
attr interpolationmode sample-hold
attr source "count(packetPushed) - count(packetPopped) - count(packetRemoved) - count(packetDropped)"
attr title "queue length, vector"
vector 459 scenario.client[1].ppp[1].ppp.queue packetPopped:vector(packetBytes) ETV
attr interpolationmode none
attr title "packet popped, vector(packetBytes)"
vector 460 scenario.client[1].ppp[1].ppp.queue queueingTime:vector ETV
attr interpolationmode none
attr source queueingTime(packetPopped)
attr title "queueing times, vector"
attr unit s
vector 461 scenario.client[1].ppp[1].ppp txPk:vector(packetBytes) ETV
attr interpolationmode none
attr source packetSentToLower
attr title "packets transmitted, vector(packetBytes)"
vector 462 scenario.client[2].ppp[1].ppp rxPkOk:vector(packetBytes) ETV
attr interpolationmode none
attr source rxPkOk
attr title "packets received OK, vector(packetBytes)"
vector 463 scenario.client[2].ppp[1].ppp passedUpPk:vector(packetBytes) ETV
attr interpolationmode none
attr source packetSentToUpper
attr title "packets passed to higher layer, vector(packetBytes)"
vector 464 scenario.client[2].tcp.conn-50 rcvAdv:vector ETV
attr interpolationmode sample-hold
vector 465 scenario.client[2].tcp.conn-50 sndWnd:vector ETV
attr interpolationmode sample-hold
vector 466 scenario.client[2].tcp.conn-50 tcpRcvQueueBytes:vector ETV
attr interpolationmode sample-hold
vector 467 scenario.client[2].tcp.conn-50 rcvWnd:vector ETV
attr interpolationmode sample-hold
vector 468 scenario.client[2].tcp.conn-50 sndAck:vector ETV
attr interpolationmode sample-hold
vector 469 scenario.client[2].ppp[1].ppp rcvdPkFromHl:vector(packetBytes) ETV
attr interpolationmode none
attr source packetReceivedFromUpper
attr title "packets received from higher layer, vector(packetBytes)"
vector 470 scenario.client[2].ppp[1].ppp.queue packetPushed:vector(packetBytes) ETV
attr interpolationmode none
attr title "packet pushed, vector(packetBytes)"
vector 471 scenario.client[2].ppp[1].ppp.queue queueLength:vector ETV
attr interpolationmode sample-hold
attr source "count(packetPushed) - count(packetPopped) - count(packetRemoved) - count(packetDropped)"
attr title "queue length, vector"
vector 472 scenario.client[2].ppp[1].ppp.queue packetPopped:vector(packetBytes) ETV
attr interpolationmode none
attr title "packet popped, vector(packetBytes)"
vector 473 scenario.client[2].ppp[1].ppp.queue queueingTime:vector ETV
attr interpolationmode none
attr source queueingTime(packetPopped)
attr title "queueing times, vector"
attr unit s
vector 474 scenario.client[2].ppp[1].ppp txPk:vector(packetBytes) ETV
attr interpolationmode none
attr source packetSentToLower
attr title "packets transmitted, vector(packetBytes)"
vector 475 scenario.client[1].ppp[1].ppp rxPkOk:vector(packetBytes) ETV
attr interpolationmode none
attr source rxPkOk
attr title "packets received OK, vector(packetBytes)"
vector 476 scenario.client[1].ppp[1].ppp passedUpPk:vector(packetBytes) ETV
attr interpolationmode none
attr source packetSentToUpper
attr title "packets passed to higher layer, vector(packetBytes)"
vector 477 scenario.client[1].tcp.conn-49 rcvSeq:vector ETV
attr interpolationmode sample-hold
vector 478 scenario.client[1].tcp.conn-49 rcvAck:vector ETV
attr interpolationmode sample-hold
vector 479 scenario.client[1].tcp.conn-49 sndWnd:vector ETV
attr interpolationmode sample-hold
vector 480 scenario.client[1].tcp.conn-49 unacked:vector ETV
attr interpolationmode sample-hold
vector 481 scenario.client[2].tcp.conn-50 rcvSeq:vector ETV
attr interpolationmode sample-hold
vector 482 scenario.client[2].tcp.conn-50 rcvAck:vector ETV
attr interpolationmode sample-hold
vector 483 scenario.client[2].tcp.conn-50 unacked:vector ETV
attr interpolationmode sample-hold
vector 484 scenario.client[2].tcp.conn-50 cwnd:vector ETV
attr interpolationmode sample-hold
vector 485 scenario.client[2].tcp.conn-50 ssthresh:vector ETV
attr interpolationmode sample-hold
vector 486 scenario.client[2].tcp.conn-50 dupAcks:vector ETV
attr interpolationmode sample-hold
vector 487 scenario.client[2].tcp.conn-51 tcpRcvQueueBytes:vector ETV
attr interpolationmode sample-hold
vector 488 scenario.client[2].tcp.conn-51 rcvAdv:vector ETV
attr interpolationmode sample-hold
vector 489 scenario.client[2].tcp.conn-51 rcvWnd:vector ETV
attr interpolationmode sample-hold
vector 490 scenario.client[2].tcp.conn-51 sndAck:vector ETV
attr interpolationmode sample-hold
vector 491 scenario.client[1].tcp.conn-49 rtt:vector ETV
attr interpolationmode sample-hold
vector 492 scenario.client[1].tcp.conn-49 srtt:vector ETV
attr interpolationmode sample-hold
vector 493 scenario.client[1].tcp.conn-49 rttvar:vector ETV
attr interpolationmode sample-hold
vector 494 scenario.client[1].tcp.conn-49 rto:vector ETV
attr interpolationmode sample-hold
vector 495 scenario.client[1].tcp.conn-49 cwnd:vector ETV
attr interpolationmode sample-hold
vector 496 scenario.client[1].tcp.conn-49 ssthresh:vector ETV
attr interpolationmode sample-hold
vector 497 scenario.client[1].tcp.conn-49 dupAcks:vector ETV
attr interpolationmode sample-hold
vector 498 scenario.client[1].tcp.conn-52 rcvAdv:vector ETV
attr interpolationmode sample-hold
vector 499 scenario.client[1].tcp.conn-52 sndWnd:vector ETV
attr interpolationmode sample-hold
vector 500 scenario.client[1].tcp.conn-52 tcpRcvQueueBytes:vector ETV
attr interpolationmode sample-hold
vector 501 scenario.client[1].tcp.conn-52 rcvWnd:vector ETV
attr interpolationmode sample-hold
vector 502 scenario.client[1].tcp.conn-52 sndAck:vector ETV
attr interpolationmode sample-hold
vector 503 scenario.client[2].tcp.conn-51 rcvSeq:vector ETV
attr interpolationmode sample-hold
vector 504 scenario.client[2].tcp.conn-51 rcvAck:vector ETV
attr interpolationmode sample-hold
vector 505 scenario.client[2].tcp.conn-51 sndWnd:vector ETV
attr interpolationmode sample-hold
vector 506 scenario.client[2].tcp.conn-51 unacked:vector ETV
attr interpolationmode sample-hold
vector 507 scenario.client[1].tcp.conn-52 rcvSeq:vector ETV
attr interpolationmode sample-hold
vector 508 scenario.client[1].tcp.conn-52 rcvAck:vector ETV
attr interpolationmode sample-hold
vector 509 scenario.client[1].tcp.conn-52 unacked:vector ETV
attr interpolationmode sample-hold
vector 510 scenario.client[1].tcp.conn-52 cwnd:vector ETV
attr interpolationmode sample-hold
vector 511 scenario.client[1].tcp.conn-52 ssthresh:vector ETV
attr interpolationmode sample-hold
vector 512 scenario.client[1].tcp.conn-52 dupAcks:vector ETV
attr interpolationmode sample-hold
vector 513 scenario.client[2].tcp.conn-51 rtt:vector ETV
attr interpolationmode sample-hold
vector 514 scenario.client[2].tcp.conn-51 srtt:vector ETV
attr interpolationmode sample-hold
vector 515 scenario.client[2].tcp.conn-51 rttvar:vector ETV
attr interpolationmode sample-hold
vector 516 scenario.client[2].tcp.conn-51 rto:vector ETV
attr interpolationmode sample-hold
vector 517 scenario.client[2].tcp.conn-51 cwnd:vector ETV
attr interpolationmode sample-hold
vector 518 scenario.client[2].tcp.conn-51 ssthresh:vector ETV
attr interpolationmode sample-hold
vector 519 scenario.client[2].tcp.conn-51 dupAcks:vector ETV
attr interpolationmode sample-hold
vector 520 scenario.client[4].tcp.conn-53 tcpRcvQueueBytes:vector ETV
attr interpolationmode sample-hold
vector 521 scenario.client[4].tcp.conn-53 rcvAdv:vector ETV
attr interpolationmode sample-hold
vector 522 scenario.client[4].tcp.conn-53 rcvWnd:vector ETV
attr interpolationmode sample-hold
vector 523 scenario.client[4].tcp.conn-53 sndAck:vector ETV
attr interpolationmode sample-hold
vector 524 scenario.client[4].ppp[2].ppp rcvdPkFromHl:vector(packetBytes) ETV
attr interpolationmode none
attr source packetReceivedFromUpper
attr title "packets received from higher layer, vector(packetBytes)"
vector 525 scenario.client[4].ppp[2].ppp.queue packetPushed:vector(packetBytes) ETV
attr interpolationmode none
attr title "packet pushed, vector(packetBytes)"
vector 526 scenario.client[4].ppp[2].ppp.queue queueLength:vector ETV
attr interpolationmode sample-hold
attr source "count(packetPushed) - count(packetPopped) - count(packetRemoved) - count(packetDropped)"
attr title "queue length, vector"
vector 527 scenario.client[4].ppp[2].ppp.queue packetPopped:vector(packetBytes) ETV
attr interpolationmode none
attr title "packet popped, vector(packetBytes)"
vector 528 scenario.client[4].ppp[2].ppp.queue queueingTime:vector ETV
attr interpolationmode none
attr source queueingTime(packetPopped)
attr title "queueing times, vector"
attr unit s
vector 529 scenario.client[4].ppp[2].ppp txPk:vector(packetBytes) ETV
attr interpolationmode none
attr source packetSentToLower
attr title "packets transmitted, vector(packetBytes)"
vector 530 scenario.client[2].ppp[3].ppp rxPkOk:vector(packetBytes) ETV
attr interpolationmode none
attr source rxPkOk
attr title "packets received OK, vector(packetBytes)"
vector 531 scenario.client[2].ppp[3].ppp passedUpPk:vector(packetBytes) ETV
attr interpolationmode none
attr source packetSentToUpper
attr title "packets passed to higher layer, vector(packetBytes)"
vector 532 scenario.client[2].tcp.conn-54 rcvAdv:vector ETV
attr interpolationmode sample-hold
vector 533 scenario.client[2].tcp.conn-54 sndWnd:vector ETV
attr interpolationmode sample-hold
vector 534 scenario.client[2].tcp.conn-54 tcpRcvQueueBytes:vector ETV
attr interpolationmode sample-hold
vector 535 scenario.client[2].tcp.conn-54 rcvWnd:vector ETV
attr interpolationmode sample-hold
vector 536 scenario.client[2].tcp.conn-54 sndAck:vector ETV
attr interpolationmode sample-hold
vector 537 scenario.client[2].ppp[3].ppp rcvdPkFromHl:vector(packetBytes) ETV
attr interpolationmode none
attr source packetReceivedFromUpper
attr title "packets received from higher layer, vector(packetBytes)"
vector 538 scenario.client[2].ppp[3].ppp.queue packetPushed:vector(packetBytes) ETV
attr interpolationmode none
attr title "packet pushed, vector(packetBytes)"
vector 539 scenario.client[2].ppp[3].ppp.queue queueLength:vector ETV
attr interpolationmode sample-hold
attr source "count(packetPushed) - count(packetPopped) - count(packetRemoved) - count(packetDropped)"
attr title "queue length, vector"
vector 540 scenario.client[2].ppp[3].ppp.queue packetPopped:vector(packetBytes) ETV
attr interpolationmode none
attr title "packet popped, vector(packetBytes)"
vector 541 scenario.client[2].ppp[3].ppp.queue queueingTime:vector ETV
attr interpolationmode none
attr source queueingTime(packetPopped)
attr title "queueing times, vector"
attr unit s
vector 542 scenario.client[2].ppp[3].ppp txPk:vector(packetBytes) ETV
attr interpolationmode none
attr source packetSentToLower
attr title "packets transmitted, vector(packetBytes)"
vector 543 scenario.client[4].ppp[2].ppp rxPkOk:vector(packetBytes) ETV
attr interpolationmode none
attr source rxPkOk
attr title "packets received OK, vector(packetBytes)"
vector 544 scenario.client[4].ppp[2].ppp passedUpPk:vector(packetBytes) ETV
attr interpolationmode none
attr source packetSentToUpper
attr title "packets passed to higher layer, vector(packetBytes)"
vector 545 scenario.client[4].tcp.conn-53 rcvSeq:vector ETV
attr interpolationmode sample-hold
vector 546 scenario.client[4].tcp.conn-53 rcvAck:vector ETV
attr interpolationmode sample-hold
vector 547 scenario.client[4].tcp.conn-53 sndWnd:vector ETV
attr interpolationmode sample-hold
vector 548 scenario.client[4].tcp.conn-53 unacked:vector ETV
attr interpolationmode sample-hold
vector 549 scenario.client[2].tcp.conn-54 rcvSeq:vector ETV
attr interpolationmode sample-hold
vector 550 scenario.client[2].tcp.conn-54 rcvAck:vector ETV
attr interpolationmode sample-hold
vector 551 scenario.client[2].tcp.conn-54 unacked:vector ETV
attr interpolationmode sample-hold
vector 552 scenario.client[2].tcp.conn-54 cwnd:vector ETV
attr interpolationmode sample-hold
vector 553 scenario.client[2].tcp.conn-54 ssthresh:vector ETV
attr interpolationmode sample-hold
vector 554 scenario.client[2].tcp.conn-54 dupAcks:vector ETV
attr interpolationmode sample-hold
vector 555 scenario.client[4].tcp.conn-53 rtt:vector ETV
attr interpolationmode sample-hold
vector 556 scenario.client[4].tcp.conn-53 srtt:vector ETV
attr interpolationmode sample-hold
vector 557 scenario.client[4].tcp.conn-53 rttvar:vector ETV
attr interpolationmode sample-hold
vector 558 scenario.client[4].tcp.conn-53 rto:vector ETV
attr interpolationmode sample-hold
vector 559 scenario.client[4].tcp.conn-53 cwnd:vector ETV
attr interpolationmode sample-hold
vector 560 scenario.client[4].tcp.conn-53 ssthresh:vector ETV
attr interpolationmode sample-hold
vector 561 scenario.client[4].tcp.conn-53 dupAcks:vector ETV
attr interpolationmode sample-hold
vector 562 scenario.client[0].tcp.conn-55 tcpRcvQueueBytes:vector ETV
attr interpolationmode sample-hold
vector 563 scenario.client[0].tcp.conn-55 rcvAdv:vector ETV
attr interpolationmode sample-hold
vector 564 scenario.client[0].tcp.conn-55 rcvWnd:vector ETV
attr interpolationmode sample-hold
vector 565 scenario.client[0].tcp.conn-55 sndAck:vector ETV
attr interpolationmode sample-hold
vector 566 scenario.client[4].tcp.conn-4 rcvSeq:vector ETV
attr interpolationmode sample-hold
vector 567 scenario.client[4].tcp.conn-4 rcvAck:vector ETV
attr interpolationmode sample-hold
vector 568 scenario.client[4].tcp.conn-56 rcvAdv:vector ETV
attr interpolationmode sample-hold
vector 569 scenario.client[4].tcp.conn-56 sndWnd:vector ETV
attr interpolationmode sample-hold
vector 570 scenario.client[4].tcp.conn-56 tcpRcvQueueBytes:vector ETV
attr interpolationmode sample-hold
vector 571 scenario.client[4].tcp.conn-56 rcvWnd:vector ETV
attr interpolationmode sample-hold
vector 572 scenario.client[4].tcp.conn-56 sndAck:vector ETV
attr interpolationmode sample-hold
vector 573 scenario.client[0].tcp.conn-55 rcvSeq:vector ETV
attr interpolationmode sample-hold
vector 574 scenario.client[0].tcp.conn-55 rcvAck:vector ETV
attr interpolationmode sample-hold
vector 575 scenario.client[0].tcp.conn-55 sndWnd:vector ETV
attr interpolationmode sample-hold
vector 576 scenario.client[0].tcp.conn-55 unacked:vector ETV
attr interpolationmode sample-hold
vector 577 scenario.client[4].tcp.conn-56 rcvSeq:vector ETV
attr interpolationmode sample-hold
vector 578 scenario.client[4].tcp.conn-56 rcvAck:vector ETV
attr interpolationmode sample-hold
vector 579 scenario.client[4].tcp.conn-56 unacked:vector ETV
attr interpolationmode sample-hold
vector 580 scenario.client[4].tcp.conn-56 cwnd:vector ETV
attr interpolationmode sample-hold
vector 581 scenario.client[4].tcp.conn-56 ssthresh:vector ETV
attr interpolationmode sample-hold
vector 582 scenario.client[4].tcp.conn-56 dupAcks:vector ETV
attr interpolationmode sample-hold
vector 583 scenario.client[0].tcp.conn-55 rtt:vector ETV
attr interpolationmode sample-hold
vector 584 scenario.client[0].tcp.conn-55 srtt:vector ETV
attr interpolationmode sample-hold
vector 585 scenario.client[0].tcp.conn-55 rttvar:vector ETV
attr interpolationmode sample-hold
vector 586 scenario.client[0].tcp.conn-55 rto:vector ETV
attr interpolationmode sample-hold
vector 587 scenario.client[0].tcp.conn-55 cwnd:vector ETV
attr interpolationmode sample-hold
vector 588 scenario.client[0].tcp.conn-55 ssthresh:vector ETV
attr interpolationmode sample-hold
vector 589 scenario.client[0].tcp.conn-55 dupAcks:vector ETV
attr interpolationmode sample-hold
vector 590 scenario.client[4].tcp.conn-57 tcpRcvQueueBytes:vector ETV
attr interpolationmode sample-hold
vector 591 scenario.client[4].tcp.conn-57 rcvAdv:vector ETV
attr interpolationmode sample-hold
vector 592 scenario.client[4].tcp.conn-57 rcvWnd:vector ETV
attr interpolationmode sample-hold
vector 593 scenario.client[4].tcp.conn-57 sndAck:vector ETV
attr interpolationmode sample-hold
vector 594 scenario.client[4].ppp[3].ppp rcvdPkFromHl:vector(packetBytes) ETV
attr interpolationmode none
attr source packetReceivedFromUpper
attr title "packets received from higher layer, vector(packetBytes)"
vector 595 scenario.client[4].ppp[3].ppp.queue packetPushed:vector(packetBytes) ETV
attr interpolationmode none
attr title "packet pushed, vector(packetBytes)"
vector 596 scenario.client[4].ppp[3].ppp.queue queueLength:vector ETV
attr interpolationmode sample-hold
attr source "count(packetPushed) - count(packetPopped) - count(packetRemoved) - count(packetDropped)"
attr title "queue length, vector"
vector 597 scenario.client[4].ppp[3].ppp.queue packetPopped:vector(packetBytes) ETV
attr interpolationmode none
attr title "packet popped, vector(packetBytes)"
vector 598 scenario.client[4].ppp[3].ppp.queue queueingTime:vector ETV
attr interpolationmode none
attr source queueingTime(packetPopped)
attr title "queueing times, vector"
attr unit s
vector 599 scenario.client[4].ppp[3].ppp txPk:vector(packetBytes) ETV
attr interpolationmode none
attr source packetSentToLower
attr title "packets transmitted, vector(packetBytes)"
vector 600 scenario.client[3].ppp[3].ppp rxPkOk:vector(packetBytes) ETV
attr interpolationmode none
attr source rxPkOk
attr title "packets received OK, vector(packetBytes)"
vector 601 scenario.client[3].ppp[3].ppp passedUpPk:vector(packetBytes) ETV
attr interpolationmode none
attr source packetSentToUpper
attr title "packets passed to higher layer, vector(packetBytes)"
vector 602 scenario.client[3].tcp.conn-58 rcvAdv:vector ETV
attr interpolationmode sample-hold
vector 603 scenario.client[3].tcp.conn-58 sndWnd:vector ETV
attr interpolationmode sample-hold
vector 604 scenario.client[3].tcp.conn-58 tcpRcvQueueBytes:vector ETV
attr interpolationmode sample-hold
vector 605 scenario.client[3].tcp.conn-58 rcvWnd:vector ETV
attr interpolationmode sample-hold
vector 606 scenario.client[3].tcp.conn-58 sndAck:vector ETV
attr interpolationmode sample-hold
vector 607 scenario.client[3].ppp[3].ppp rcvdPkFromHl:vector(packetBytes) ETV
attr interpolationmode none
attr source packetReceivedFromUpper
attr title "packets received from higher layer, vector(packetBytes)"
vector 608 scenario.client[3].ppp[3].ppp.queue packetPushed:vector(packetBytes) ETV
attr interpolationmode none
attr title "packet pushed, vector(packetBytes)"
vector 609 scenario.client[3].ppp[3].ppp.queue queueLength:vector ETV
attr interpolationmode sample-hold
attr source "count(packetPushed) - count(packetPopped) - count(packetRemoved) - count(packetDropped)"
attr title "queue length, vector"
vector 610 scenario.client[3].ppp[3].ppp.queue packetPopped:vector(packetBytes) ETV
attr interpolationmode none
attr title "packet popped, vector(packetBytes)"
vector 611 scenario.client[3].ppp[3].ppp.queue queueingTime:vector ETV
attr interpolationmode none
attr source queueingTime(packetPopped)
attr title "queueing times, vector"
attr unit s
vector 612 scenario.client[3].ppp[3].ppp txPk:vector(packetBytes) ETV
attr interpolationmode none
attr source packetSentToLower
attr title "packets transmitted, vector(packetBytes)"
vector 613 scenario.client[4].ppp[3].ppp rxPkOk:vector(packetBytes) ETV
attr interpolationmode none
attr source rxPkOk
attr title "packets received OK, vector(packetBytes)"
vector 614 scenario.client[4].ppp[3].ppp passedUpPk:vector(packetBytes) ETV
attr interpolationmode none
attr source packetSentToUpper
attr title "packets passed to higher layer, vector(packetBytes)"
vector 615 scenario.client[4].tcp.conn-57 rcvSeq:vector ETV
attr interpolationmode sample-hold
vector 616 scenario.client[4].tcp.conn-57 rcvAck:vector ETV
attr interpolationmode sample-hold
vector 617 scenario.client[4].tcp.conn-57 sndWnd:vector ETV
attr interpolationmode sample-hold
vector 618 scenario.client[4].tcp.conn-57 unacked:vector ETV
attr interpolationmode sample-hold
vector 619 scenario.client[3].tcp.conn-58 rcvSeq:vector ETV
attr interpolationmode sample-hold
vector 620 scenario.client[3].tcp.conn-58 rcvAck:vector ETV
attr interpolationmode sample-hold
vector 621 scenario.client[3].tcp.conn-58 unacked:vector ETV
attr interpolationmode sample-hold
vector 622 scenario.client[3].tcp.conn-58 cwnd:vector ETV
attr interpolationmode sample-hold
vector 623 scenario.client[3].tcp.conn-58 ssthresh:vector ETV
attr interpolationmode sample-hold
vector 624 scenario.client[3].tcp.conn-58 dupAcks:vector ETV
attr interpolationmode sample-hold
vector 625 scenario.client[4].tcp.conn-57 rtt:vector ETV
attr interpolationmode sample-hold
vector 626 scenario.client[4].tcp.conn-57 srtt:vector ETV
attr interpolationmode sample-hold
vector 627 scenario.client[4].tcp.conn-57 rttvar:vector ETV
attr interpolationmode sample-hold
vector 628 scenario.client[4].tcp.conn-57 rto:vector ETV
attr interpolationmode sample-hold
vector 629 scenario.client[4].tcp.conn-57 cwnd:vector ETV
attr interpolationmode sample-hold
vector 630 scenario.client[4].tcp.conn-57 ssthresh:vector ETV
attr interpolationmode sample-hold
vector 631 scenario.client[4].tcp.conn-57 dupAcks:vector ETV
attr interpolationmode sample-hold
vector 632 scenario.client[1].tcp.conn-59 tcpRcvQueueBytes:vector ETV
attr interpolationmode sample-hold
vector 633 scenario.client[1].tcp.conn-59 rcvAdv:vector ETV
attr interpolationmode sample-hold
vector 634 scenario.client[1].tcp.conn-59 rcvWnd:vector ETV
attr interpolationmode sample-hold
vector 635 scenario.client[1].tcp.conn-59 sndAck:vector ETV
attr interpolationmode sample-hold
vector 636 scenario.client[4].tcp.conn-60 rcvAdv:vector ETV
attr interpolationmode sample-hold
vector 637 scenario.client[4].tcp.conn-60 sndWnd:vector ETV
attr interpolationmode sample-hold
vector 638 scenario.client[4].tcp.conn-60 tcpRcvQueueBytes:vector ETV
attr interpolationmode sample-hold
vector 639 scenario.client[4].tcp.conn-60 rcvWnd:vector ETV
attr interpolationmode sample-hold
vector 640 scenario.client[4].tcp.conn-60 sndAck:vector ETV
attr interpolationmode sample-hold
vector 641 scenario.client[1].tcp.conn-59 rcvSeq:vector ETV
attr interpolationmode sample-hold
vector 642 scenario.client[1].tcp.conn-59 rcvAck:vector ETV
attr interpolationmode sample-hold
vector 643 scenario.client[1].tcp.conn-59 sndWnd:vector ETV
attr interpolationmode sample-hold
vector 644 scenario.client[1].tcp.conn-59 unacked:vector ETV
attr interpolationmode sample-hold
vector 645 scenario.client[4].tcp.conn-60 rcvSeq:vector ETV
attr interpolationmode sample-hold
vector 646 scenario.client[4].tcp.conn-60 rcvAck:vector ETV
attr interpolationmode sample-hold
vector 647 scenario.client[4].tcp.conn-60 unacked:vector ETV
attr interpolationmode sample-hold
vector 648 scenario.client[4].tcp.conn-60 cwnd:vector ETV
attr interpolationmode sample-hold
vector 649 scenario.client[4].tcp.conn-60 ssthresh:vector ETV
attr interpolationmode sample-hold
vector 650 scenario.client[4].tcp.conn-60 dupAcks:vector ETV
attr interpolationmode sample-hold
vector 651 scenario.client[1].tcp.conn-59 rtt:vector ETV
attr interpolationmode sample-hold
vector 652 scenario.client[1].tcp.conn-59 srtt:vector ETV
attr interpolationmode sample-hold
vector 653 scenario.client[1].tcp.conn-59 rttvar:vector ETV
attr interpolationmode sample-hold
vector 654 scenario.client[1].tcp.conn-59 rto:vector ETV
[...]
560	2523	12.111984501725	4294967295
560	2778	13.770891328716	4294967295
561	669	2.935367131321	0
561	2523	12.111984501725	0
561	2778	13.770891328716	0
562	762	3.184306345654	0
562	779	3.186122345654	0
562	2017	10.032056583881	0
562	2810	14.132131901853	0
562	2921	16.919958068423	0
563	762	3.184306345654	7504
563	779	3.186122345654	803808
563	779	3.186122345654	803808
563	2017	10.032056583881	803808
563	2810	14.132131901853	803808
563	2921	16.919958068423	803808
564	762	3.184306345654	7504
564	779	3.186122345654	7504
564	2017	10.032056583881	7504
564	2810	14.132131901853	7504
564	2921	16.919958068423	7504
565	762	3.184306345654	0
565	779	3.186122345654	796304
565	2017	10.032056583881	796304
565	2810	14.132131901853	796304
565	2921	16.919958068423	796304
566	773	3.185214345654	796076
566	867	3.632251487533	907835
566	974	4.097814401441	1024226
566	1126	4.528958540361	1132012
567	773	3.185214345654	0
567	867	3.632251487533	0
567	974	4.097814401441	0
567	1126	4.528958540361	0
568	773	3.185214345654	803581
568	773	3.185214345654	803581
568	786	3.187006345654	803581
568	2043	10.032948583881	803584
568	2816	14.133015901853	803585
568	2927	16.920842068423	803586
569	773	3.185214345654	7504
569	786	3.187006345654	7504
570	773	3.185214345654	0
570	786	3.187006345654	0
570	786	3.187006345654	1
570	2043	10.032948583881	0
570	2043	10.032948583881	0
570	2816	14.133015901853	0
570	2816	14.133015901853	0
570	2927	16.920842068423	0
570	2927	16.920842068423	0
571	773	3.185214345654	7504
571	786	3.187006345654	7503
571	2043	10.032948583881	7504
571	2816	14.133015901853	7504
571	2927	16.920842068423	7504
572	773	3.185214345654	796077
572	786	3.187006345654	796078
572	2043	10.032948583881	796080
572	2816	14.133015901853	796081
572	2927	16.920842068423	796082
573	779	3.186122345654	796303
573	796	3.187882345654	796304
573	2071	10.033824583881	796304
573	2823	14.133891901853	796304
573	2934	16.921718068423	796304
574	779	3.186122345654	796077
574	796	3.187882345654	796078
574	2071	10.033824583881	796080
574	2823	14.133891901853	796081
574	2934	16.921718068423	796082
575	779	3.186122345654	7504
575	796	3.187882345654	7503
575	2071	10.033824583881	7504
575	2823	14.133891901853	7504
575	2934	16.921718068423	7504
576	779	3.186122345654	1
576	796	3.187882345654	0
576	2017	10.032056583881	2
576	2071	10.033824583881	0
576	2810	14.132131901853	1
576	2823	14.133891901853	0
576	2921	16.919958068423	1
576	2934	16.921718068423	0
577	786	3.187006345654	796077
577	2043	10.032948583881	796078
577	2816	14.133015901853	796080
577	2927	16.920842068423	796081
578	786	3.187006345654	796304
578	2043	10.032948583881	796304
578	2816	14.133015901853	796304
578	2927	16.920842068423	796304
579	786	3.187006345654	0
580	786	3.187006345654	1072
581	786	3.187006345654	4294967295
582	786	3.187006345654	0
582	2043	10.032948583881	0
582	2816	14.133015901853	0
582	2927	16.920842068423	0
583	796	3.187882345654	0.00176
583	2071	10.033824583881	0.001768
583	2823	14.133891901853	0.00176
583	2934	16.921718068423	0.00176
584	796	3.187882345654	0.00022
584	2071	10.033824583881	0.0004135
584	2823	14.133891901853	0.0005818125
584	2934	16.921718068423	0.000729085938
585	796	3.187882345654	0.65647
585	2071	10.033824583881	0.57460475
585	2823	14.133891901853	0.50294746875
585	2934	16.921718068423	0.440226308594
586	796	3.187882345654	2.6261
586	2071	10.033824583881	2.2988325
586	2823	14.133891901853	2.0123716875
586	2934	16.921718068423	1.761634320314
587	796	3.187882345654	1072
587	2071	10.033824583881	1072
587	2823	14.133891901853	1072
587	2934	16.921718068423	1072
588	796	3.187882345654	4294967295
588	2071	10.033824583881	4294967295
588	2823	14.133891901853	4294967295
588	2934	16.921718068423	4294967295
589	796	3.187882345654	0
589	2071	10.033824583881	0
589	2823	14.133891901853	0
589	2934	16.921718068423	0
590	798	3.271623889889	0
590	811	3.273439889889	0
590	2570	12.422535668448	0
590	2795	14.115067789179	0
591	798	3.271623889889	7504
591	811	3.273439889889	825637
591	811	3.273439889889	825637
591	2570	12.422535668448	825637
591	2795	14.115067789179	825637
592	798	3.271623889889	7504
592	811	3.273439889889	7504
592	2570	12.422535668448	7504
592	2795	14.115067789179	7504
593	798	3.271623889889	0
593	811	3.273439889889	818133
593	2570	12.422535668448	818133
593	2795	14.115067789179	818133
594	801	3.271623889889	44
594	814	3.273439889889	41
594	1128	4.528958540361	44
594	1143	4.530750540361	40
594	2504	12.088653159704	40
594	2572	12.422535668448	41
594	2764	13.769710320872	40
594	2797	14.115067789179	41
595	801	3.271623889889	44
595	814	3.273439889889	41
595	1128	4.528958540361	44
595	1143	4.530750540361	40
595	2504	12.088653159704	40
595	2572	12.422535668448	41
595	2764	13.769710320872	40
595	2797	14.115067789179	41
596	801	3.271623889889	1
596	801	3.271623889889	0
596	814	3.273439889889	1
596	814	3.273439889889	0
596	1128	4.528958540361	1
596	1128	4.528958540361	0
596	1143	4.530750540361	1
596	1143	4.530750540361	0
596	2504	12.088653159704	1
596	2504	12.088653159704	0
596	2572	12.422535668448	1
596	2572	12.422535668448	0
596	2764	13.769710320872	1
596	2764	13.769710320872	0
596	2797	14.115067789179	1
596	2797	14.115067789179	0
597	801	3.271623889889	44
597	814	3.273439889889	41
597	1128	4.528958540361	44
597	1143	4.530750540361	40
597	2504	12.088653159704	40
597	2572	12.422535668448	41
597	2764	13.769710320872	40
597	2797	14.115067789179	41
598	801	3.271623889889	0
598	814	3.273439889889	0
598	1128	4.528958540361	0
598	1143	4.530750540361	0
598	2504	12.088653159704	0
598	2572	12.422535668448	0
598	2764	13.769710320872	0
598	2797	14.115067789179	0
599	801	3.271623889889	51
599	814	3.273439889889	48
599	1128	4.528958540361	51
599	1143	4.530750540361	47
599	2504	12.088653159704	47
599	2572	12.422535668448	48
599	2764	13.769710320872	47
599	2797	14.115067789179	48
600	803	3.272531889889	51
600	816	3.274323889889	48
600	1130	4.529866540361	51
600	1147	4.531626540361	47
600	2506	12.089529159704	47
600	2574	12.423419668448	48
600	2773	13.770586320872	47
600	2799	14.115951789179	48
601	803	3.272531889889	44
601	816	3.274323889889	41
601	1130	4.529866540361	44
601	1147	4.531626540361	40
601	2506	12.089529159704	40
601	2574	12.423419668448	41
601	2773	13.770586320872	40
601	2799	14.115951789179	41
602	805	3.272531889889	825410
602	805	3.272531889889	825410
602	818	3.274323889889	825410
602	2576	12.423419668448	825412
602	2801	14.115951789179	825413
603	805	3.272531889889	7504
603	818	3.274323889889	7504
604	805	3.272531889889	0
604	818	3.274323889889	0
604	818	3.274323889889	1
604	2576	12.423419668448	0
604	2576	12.423419668448	0
604	2801	14.115951789179	0
604	2801	14.115951789179	0
605	805	3.272531889889	7504
605	818	3.274323889889	7503
605	2576	12.423419668448	7504
605	2801	14.115951789179	7504
606	805	3.272531889889	817906
606	818	3.274323889889	817907
606	2576	12.423419668448	817908
606	2801	14.115951789179	817909
607	807	3.272531889889	44
607	822	3.274323889889	40
607	1122	4.528050540361	44
607	1135	4.529866540361	41
607	2497	12.087769159704	41
607	2579	12.423419668448	40
607	2752	13.768826320872	41
607	2804	14.115951789179	40
608	807	3.272531889889	44
608	822	3.274323889889	40
608	1122	4.528050540361	44
608	1135	4.529866540361	41
608	2497	12.087769159704	41
608	2579	12.423419668448	40
608	2752	13.768826320872	41
608	2804	14.115951789179	40
609	807	3.272531889889	1
609	807	3.272531889889	0
609	822	3.274323889889	1
609	822	3.274323889889	0
609	1122	4.528050540361	1
609	1122	4.528050540361	0
609	1135	4.529866540361	1
609	1135	4.529866540361	0
609	2497	12.087769159704	1
609	2497	12.087769159704	0
609	2579	12.423419668448	1
609	2579	12.423419668448	0
609	2752	13.768826320872	1
609	2752	13.768826320872	0
609	2804	14.115951789179	1
609	2804	14.115951789179	0
610	807	3.272531889889	44
610	822	3.274323889889	40
610	1122	4.528050540361	44
610	1135	4.529866540361	41
610	2497	12.087769159704	41
610	2579	12.423419668448	40
610	2752	13.768826320872	41
610	2804	14.115951789179	40
611	807	3.272531889889	0
611	822	3.274323889889	0
611	1122	4.528050540361	0
611	1135	4.529866540361	0
611	2497	12.087769159704	0
611	2579	12.423419668448	0
611	2752	13.768826320872	0
611	2804	14.115951789179	0
612	807	3.272531889889	51
612	822	3.274323889889	47
612	1122	4.528050540361	51
612	1135	4.529866540361	48
612	2497	12.087769159704	48
612	2579	12.423419668448	47
612	2752	13.768826320872	48
612	2804	14.115951789179	47
613	809	3.273439889889	51
613	826	3.275199889889	47
613	1124	4.528958540361	51
613	1137	4.530750540361	48
613	2499	12.088653159704	48
613	2581	12.424295668448	47
613	2759	13.769710320872	48
613	2806	14.116827789179	47
614	809	3.273439889889	44
614	826	3.275199889889	40
614	1124	4.528958540361	44
614	1137	4.530750540361	41
614	2499	12.088653159704	41
614	2581	12.424295668448	40
614	2759	13.769710320872	41
614	2806	14.116827789179	40
615	811	3.273439889889	818132
615	828	3.275199889889	818133
615	2583	12.424295668448	818133
615	2808	14.116827789179	818133
616	811	3.273439889889	817906
616	828	3.275199889889	817907
616	2583	12.424295668448	817908
616	2808	14.116827789179	817909
617	811	3.273439889889	7504
617	828	3.275199889889	7503
617	2583	12.424295668448	7504
617	2808	14.116827789179	7504
618	811	3.273439889889	1
618	828	3.275199889889	0
618	2570	12.422535668448	1
618	2583	12.424295668448	0
618	2795	14.115067789179	1
618	2808	14.116827789179	0
619	818	3.274323889889	817906
619	2576	12.423419668448	817907
619	2801	14.115951789179	817908
620	818	3.274323889889	818133
620	2576	12.423419668448	818133
620	2801	14.115951789179	818133
621	818	3.274323889889	0
622	818	3.274323889889	1072
623	818	3.274323889889	4294967295
624	818	3.274323889889	0
624	2576	12.423419668448	0
624	2801	14.115951789179	0
625	828	3.275199889889	0.00176
625	2583	12.424295668448	0.00176
625	2808	14.116827789179	0.00176
626	828	3.275199889889	0.00022
626	2583	12.424295668448	0.0004125
626	2808	14.116827789179	0.0005809375
627	828	3.275199889889	0.65647
627	2583	12.424295668448	0.57460375
627	2808	14.116827789179	0.50294671875
628	828	3.275199889889	2.6261
628	2583	12.424295668448	2.2988275
628	2808	14.116827789179	2.0123678125
629	828	3.275199889889	1072
629	2583	12.424295668448	1072
629	2808	14.116827789179	1608
630	828	3.275199889889	4294967295
630	2583	12.424295668448	4294967295
630	2808	14.116827789179	4294967295
631	828	3.275199889889	0
631	2583	12.424295668448	0
631	2808	14.116827789179	0
632	860	3.631343487533	0
632	873	3.633159487533	0
632	2190	10.642200936431	0
632	2324	11.109907286478	0
632	2630	12.583871946045	0
633	860	3.631343487533	7504
633	873	3.633159487533	915567
633	873	3.633159487533	915567
633	2190	10.642200936431	915567
633	2324	11.109907286478	915567
633	2630	12.583871946045	915567
634	860	3.631343487533	7504
634	873	3.633159487533	7504
634	2190	10.642200936431	7504
634	2324	11.109907286478	7504
634	2630	12.583871946045	7504
635	860	3.631343487533	0
635	873	3.633159487533	908063
635	2190	10.642200936431	908063
635	2324	11.109907286478	908063
635	2630	12.583871946045	908063
636	867	3.632251487533	915340
636	867	3.632251487533	915340
636	880	3.634043487533	915340
636	2216	10.643092936431	915343
636	2330	11.110791286478	915344
636	2636	12.584755946045	915345
637	867	3.632251487533	7504
637	880	3.634043487533	7504
638	867	3.632251487533	0
638	880	3.634043487533	0
638	880	3.634043487533	1
638	2216	10.643092936431	0
638	2216	10.643092936431	0
638	2330	11.110791286478	0
638	2330	11.110791286478	0
638	2636	12.584755946045	0
638	2636	12.584755946045	0
639	867	3.632251487533	7504
639	880	3.634043487533	7503
639	2216	10.643092936431	7504
639	2330	11.110791286478	7504
639	2636	12.584755946045	7504
640	867	3.632251487533	907836
640	880	3.634043487533	907837
640	2216	10.643092936431	907839
640	2330	11.110791286478	907840
640	2636	12.584755946045	907841
641	873	3.633159487533	908062
641	890	3.634919487533	908063
641	2244	10.643968936431	908063
641	2337	11.111667286478	908063
641	2643	12.585631946045	908063
642	873	3.633159487533	907836
642	890	3.634919487533	907837
642	2244	10.643968936431	907839
642	2337	11.111667286478	907840
642	2643	12.585631946045	907841
643	873	3.633159487533	7504
643	890	3.634919487533	7503
643	2244	10.643968936431	7504
643	2337	11.111667286478	7504
643	2643	12.585631946045	7504
644	873	3.633159487533	1
644	890	3.634919487533	0
644	2190	10.642200936431	2
644	2244	10.643968936431	0
644	2324	11.109907286478	1
644	2337	11.111667286478	0
644	2630	12.583871946045	1
644	2643	12.585631946045	0
645	880	3.634043487533	907836
645	2216	10.643092936431	907837
645	2330	11.110791286478	907839
645	2636	12.584755946045	907840
646	880	3.634043487533	908063
646	2216	10.643092936431	908063
646	2330	11.110791286478	908063
646	2636	12.584755946045	908063
647	880	3.634043487533	0
648	880	3.634043487533	1072
649	880	3.634043487533	4294967295
650	880	3.634043487533	0
650	2216	10.643092936431	0
650	2330	11.110791286478	0
650	2636	12.584755946045	0
651	890	3.634919487533	0.00176
651	2244	10.643968936431	0.001768
651	2337	11.111667286478	0.00176
651	2643	12.585631946045	0.00176
652	890	3.634919487533	0.00022
652	2244	10.643968936431	0.0004135
652	2337	11.111667286478	0.0005818125
652	2643	12.585631946045	0.000729085938
653	890	3.634919487533	0.65647
653	2244	10.643968936431	0.57460475
653	2337	11.111667286478	0.50294746875
653	2643	12.585631946045	0.440226308594
654	890	3.634919487533	2.6261
654	2244	10.643968936431	2.2988325
654	2337	11.111667286478	2.0123716875
654	2643	12.585631946045	1.761634320314
655	890	3.634919487533	1072
655	2244	10.643968936431	1072
655	2337	11.111667286478	1608
655	2643	12.585631946045	2144
656	890	3.634919487533	4294967295
656	2244	10.643968936431	4294967295
656	2337	11.111667286478	4294967295
656	2643	12.585631946045	4294967295
657	890	3.634919487533	0
657	2244	10.643968936431	0
657	2337	11.111667286478	0
657	2643	12.585631946045	0
658	967	4.096906401441	0
658	980	4.098722401441	0
658	2118	10.40525828071	0
658	2369	11.346910979218	0
658	2660	12.90740171685	0
659	967	4.096906401441	7504
659	980	4.098722401441	1031958
659	980	4.098722401441	1031958
659	2118	10.40525828071	1031958
659	2369	11.346910979218	1031958
659	2660	12.90740171685	1031958
660	967	4.096906401441	7504
660	980	4.098722401441	7504
660	2118	10.40525828071	7504
660	2369	11.346910979218	7504
660	2660	12.90740171685	7504
661	967	4.096906401441	0
661	980	4.098722401441	1024454
661	2118	10.40525828071	1024454
661	2369	11.346910979218	1024454
661	2660	12.90740171685	1024454
662	974	4.097814401441	1031731
662	974	4.097814401441	1031731
662	987	4.099606401441	1031731
662	2144	10.40615028071	1031734
662	2375	11.347794979218	1031735
662	2666	12.90828571685	1031736
663	974	4.097814401441	7504
663	987	4.099606401441	7504
664	974	4.097814401441	0
664	987	4.099606401441	0
664	987	4.099606401441	1
664	2144	10.40615028071	0
664	2144	10.40615028071	0
664	2375	11.347794979218	0
664	2375	11.347794979218	0
664	2666	12.90828571685	0
664	2666	12.90828571685	0
665	974	4.097814401441	7504
665	987	4.099606401441	7503
665	2144	10.40615028071	7504
665	2375	11.347794979218	7504
665	2666	12.90828571685	7504
666	974	4.097814401441	1024227
666	987	4.099606401441	1024228
666	2144	10.40615028071	1024230
666	2375	11.347794979218	1024231
666	2666	12.90828571685	1024232
667	980	4.098722401441	1024453
667	997	4.100482401441	1024454
667	2172	10.40702628071	1024454
667	2382	11.348670979218	1024454
667	2673	12.90916171685	1024454
668	980	4.098722401441	1024227
668	997	4.100482401441	1024228
668	2172	10.40702628071	1024230
668	2382	11.348670979218	1024231
668	2673	12.90916171685	1024232
669	980	4.098722401441	7504
669	997	4.100482401441	7503
669	2172	10.40702628071	7504
669	2382	11.348670979218	7504
669	2673	12.90916171685	7504
670	980	4.098722401441	1
670	997	4.100482401441	0
670	2118	10.40525828071	2
670	2172	10.40702628071	0
670	2369	11.346910979218	1
670	2382	11.348670979218	0
670	2660	12.90740171685	1
670	2673	12.90916171685	0
671	987	4.099606401441	1024227
671	2144	10.40615028071	1024228
671	2375	11.347794979218	1024230
671	2666	12.90828571685	1024231
672	987	4.099606401441	1024454
672	2144	10.40615028071	1024454
672	2375	11.347794979218	1024454
672	2666	12.90828571685	1024454
673	987	4.099606401441	0
674	987	4.099606401441	1072
675	987	4.099606401441	4294967295
676	987	4.099606401441	0
676	2144	10.40615028071	0
676	2375	11.347794979218	0
676	2666	12.90828571685	0
677	997	4.100482401441	0.00176
677	2172	10.40702628071	0.001768
677	2382	11.348670979218	0.00176
677	2673	12.90916171685	0.00176
678	997	4.100482401441	0.00022
678	2172	10.40702628071	0.0004135
678	2382	11.348670979218	0.0005818125
678	2673	12.90916171685	0.000729085938
679	997	4.100482401441	0.65647
679	2172	10.40702628071	0.57460475
679	2382	11.348670979218	0.50294746875
679	2673	12.90916171685	0.440226308594
680	997	4.100482401441	2.6261
680	2172	10.40702628071	2.2988325
680	2382	11.348670979218	2.0123716875
680	2673	12.90916171685	1.761634320314
681	997	4.100482401441	1072
681	2172	10.40702628071	1072
681	2382	11.348670979218	1608
681	2673	12.90916171685	2144
682	997	4.100482401441	4294967295
682	2172	10.40702628071	4294967295
682	2382	11.348670979218	4294967295
682	2673	12.90916171685	4294967295
683	997	4.100482401441	0
683	2172	10.40702628071	0
683	2382	11.348670979218	0
683	2673	12.90916171685	0
684	1119	4.528050540361	0
684	1132	4.529866540361	0
684	2495	12.087769159704	0
684	2750	13.768826320872	0
685	1119	4.528050540361	7504
685	1132	4.529866540361	1139744
685	1132	4.529866540361	1139744
685	2495	12.087769159704	1139744
685	2750	13.768826320872	1139744
686	1119	4.528050540361	7504
686	1132	4.529866540361	7504
686	2495	12.087769159704	7504
686	2750	13.768826320872	7504
687	1119	4.528050540361	0
687	1132	4.529866540361	1132240
687	2495	12.087769159704	1132240
687	2750	13.768826320872	1132240
688	1126	4.528958540361	1139517
688	1126	4.528958540361	1139517
688	1139	4.530750540361	1139517
688	2501	12.088653159704	1139519
688	2761	13.769710320872	1139520
689	1126	4.528958540361	7504
689	1139	4.530750540361	7504
690	1126	4.528958540361	0
690	1139	4.530750540361	0
690	1139	4.530750540361	1
690	2501	12.088653159704	0
690	2501	12.088653159704	0
690	2761	13.769710320872	0
690	2761	13.769710320872	0
691	1126	4.528958540361	7504
691	1139	4.530750540361	7503
691	2501	12.088653159704	7504
691	2761	13.769710320872	7504
692	1126	4.528958540361	1132013
692	1139	4.530750540361	1132014
692	2501	12.088653159704	1132015
692	2761	13.769710320872	1132016
693	1132	4.529866540361	1132239
693	1149	4.531626540361	1132240
693	2508	12.089529159704	1132240
693	2775	13.770586320872	1132240
694	1132	4.529866540361	1132013
694	1149	4.531626540361	1132014
694	2508	12.089529159704	1132015
694	2775	13.770586320872	1132016
695	1132	4.529866540361	7504
695	1149	4.531626540361	7503
695	2508	12.089529159704	7504
695	2775	13.770586320872	7504
696	1132	4.529866540361	1
696	1149	4.531626540361	0
696	2495	12.087769159704	1
696	2508	12.089529159704	0
696	2750	13.768826320872	1
696	2775	13.770586320872	0
697	1139	4.530750540361	1132013
697	2501	12.088653159704	1132014
697	2761	13.769710320872	1132015
698	1139	4.530750540361	1132240
698	2501	12.088653159704	1132240
698	2761	13.769710320872	1132240
699	1139	4.530750540361	0
700	1139	4.530750540361	1072
701	1139	4.530750540361	4294967295
702	1139	4.530750540361	0
702	2501	12.088653159704	0
702	2761	13.769710320872	0
703	1149	4.531626540361	0.00176
703	2508	12.089529159704	0.00176
703	2775	13.770586320872	0.00176
704	1149	4.531626540361	0.00022
704	2508	12.089529159704	0.0004125
704	2775	13.770586320872	0.0005809375
705	1149	4.531626540361	0.65647
705	2508	12.089529159704	0.57460375
705	2775	13.770586320872	0.50294671875
706	1149	4.531626540361	2.6261
706	2508	12.089529159704	2.2988275
706	2775	13.770586320872	2.0123678125
707	1149	4.531626540361	1072
707	2508	12.089529159704	1072
707	2775	13.770586320872	1608
708	1149	4.531626540361	4294967295
708	2508	12.089529159704	4294967295
708	2775	13.770586320872	4294967295
709	1149	4.531626540361	0
709	2508	12.089529159704	0
709	2775	13.770586320872	0

