file 2154378 1641462257                                         
version 2
run BROADCAST-0-20220106-10:43:56-7828
attr configname BROADCAST
attr datetime 20220106-10:43:56
attr experiment BROADCAST
attr inifile omnetpp.ini
attr iterationvars ""
attr iterationvarsf ""
attr measurement ""
attr network scenario
attr processid 7828
attr repetition 0
attr replication #0
attr resultdir results
attr runnumber 0
attr seedset 0
param **.client1.app[0].broadcast 0.0
param **.client2.app[0].broadcast 2.0
param **.client3.app[0].broadcast 0.0
param **.client3.app[0].join 3.0
param **.client4.app[0].join 5.0
param **.ppp[*].ppp.queue.typename "\"DropTailQueue\""
param **.tcp.typename "\"Tcp\""
param **.tcp.nagleEnabled false
param **.cli*.app[*].nPar 5
param **.cli*.app[*].fPar 0
param **.numApps 1
param **.client0.app[*].typename "\"Node\""
param **.client0.app[0].localPort 1000
param **.client0.app[0].localPortL 1234
param **.client0.app[0].connectAddress "\"\""
param **.client0.app[0].connectPort 1234
param **.client1.app[*].typename "\"Node\""
param **.client1.app[0].localPort 1001
param **.client1.app[0].localPortL 1234
param **.client1.app[0].connectAddress "\"\""
param **.client1.app[0].connectPort 1234
param **.client2.app[*].typename "\"Node\""
param **.client2.app[0].localPort 1002
param **.client2.app[0].localPortL 1234
param **.client2.app[0].connectAddress "\"\""
param **.client2.app[0].connectPort 1234
param **.client3.app[*].typename "\"Node\""
param **.client3.app[0].localPort 1003
param **.client3.app[0].localPortL 1234
param **.client3.app[0].connectAddress "\"\""
param **.client3.app[0].connectPort 1234
param **.client4.app[*].typename "\"Node\""
param **.client4.app[0].localPort 1004
param **.client4.app[0].localPortL 1234
param **.client4.app[0].connectAddress "\"\""
param **.client4.app[0].connectPort 1234
param *.configurator.dumpAddresses true
param *.configurator.dumpTopology true
param *.configurator.dumpLinks true
param *.configurator.dumpRoutes true

vector 0 scenario.client0.ppp[0].ppp transmissionState:vector ETV
attr interpolationmode sample-hold
attr source transmissionStateChanged
attr title "tx state, vector"
vector 1 scenario.client0.ppp[1].ppp transmissionState:vector ETV
attr interpolationmode sample-hold
attr source transmissionStateChanged
attr title "tx state, vector"
vector 2 scenario.client0.ppp[2].ppp transmissionState:vector ETV
attr interpolationmode sample-hold
attr source transmissionStateChanged
attr title "tx state, vector"
vector 3 scenario.client0.ppp[3].ppp transmissionState:vector ETV
attr interpolationmode sample-hold
attr source transmissionStateChanged
attr title "tx state, vector"
vector 4 scenario.client1.ppp[0].ppp transmissionState:vector ETV
attr interpolationmode sample-hold
attr source transmissionStateChanged
attr title "tx state, vector"
vector 5 scenario.client1.ppp[1].ppp transmissionState:vector ETV
attr interpolationmode sample-hold
attr source transmissionStateChanged
attr title "tx state, vector"
vector 6 scenario.client1.ppp[2].ppp transmissionState:vector ETV
attr interpolationmode sample-hold
attr source transmissionStateChanged
attr title "tx state, vector"
vector 7 scenario.client1.ppp[3].ppp transmissionState:vector ETV
attr interpolationmode sample-hold
attr source transmissionStateChanged
attr title "tx state, vector"
vector 8 scenario.client2.ppp[0].ppp transmissionState:vector ETV
attr interpolationmode sample-hold
attr source transmissionStateChanged
attr title "tx state, vector"
vector 9 scenario.client2.ppp[1].ppp transmissionState:vector ETV
attr interpolationmode sample-hold
attr source transmissionStateChanged
attr title "tx state, vector"
vector 10 scenario.client2.ppp[2].ppp transmissionState:vector ETV
attr interpolationmode sample-hold
attr source transmissionStateChanged
attr title "tx state, vector"
vector 11 scenario.client2.ppp[3].ppp transmissionState:vector ETV
attr interpolationmode sample-hold
attr source transmissionStateChanged
attr title "tx state, vector"
vector 12 scenario.client3.ppp[0].ppp transmissionState:vector ETV
attr interpolationmode sample-hold
attr source transmissionStateChanged
attr title "tx state, vector"
vector 13 scenario.client3.ppp[1].ppp transmissionState:vector ETV
attr interpolationmode sample-hold
attr source transmissionStateChanged
attr title "tx state, vector"
vector 14 scenario.client3.ppp[2].ppp transmissionState:vector ETV
attr interpolationmode sample-hold
attr source transmissionStateChanged
attr title "tx state, vector"
vector 15 scenario.client3.ppp[3].ppp transmissionState:vector ETV
attr interpolationmode sample-hold
attr source transmissionStateChanged
attr title "tx state, vector"
vector 16 scenario.client4.ppp[0].ppp transmissionState:vector ETV
attr interpolationmode sample-hold
attr source transmissionStateChanged
attr title "tx state, vector"
vector 17 scenario.client4.ppp[1].ppp transmissionState:vector ETV
attr interpolationmode sample-hold
attr source transmissionStateChanged
attr title "tx state, vector"
vector 18 scenario.client4.ppp[2].ppp transmissionState:vector ETV
attr interpolationmode sample-hold
attr source transmissionStateChanged
attr title "tx state, vector"
vector 19 scenario.client4.ppp[3].ppp transmissionState:vector ETV
attr interpolationmode sample-hold
attr source transmissionStateChanged
attr title "tx state, vector"
vector 20 scenario.client1.tcp.conn-25 tcpRcvQueueBytes:vector ETV
attr interpolationmode sample-hold
vector 21 scenario.client1.tcp.conn-25 rcvAdv:vector ETV
attr interpolationmode sample-hold
vector 22 scenario.client1.tcp.conn-25 rcvWnd:vector ETV
attr interpolationmode sample-hold
vector 23 scenario.client1.tcp.conn-25 sndAck:vector ETV
attr interpolationmode sample-hold
vector 24 scenario.client1.ppp[0].ppp rcvdPkFromHl:vector(packetBytes) ETV
attr interpolationmode none
attr source packetReceivedFromUpper
attr title "packets received from higher layer, vector(packetBytes)"
vector 25 scenario.client1.ppp[0].ppp.queue packetPushed:vector(packetBytes) ETV
attr interpolationmode none
attr title "packet pushed, vector(packetBytes)"
vector 26 scenario.client1.ppp[0].ppp.queue queueLength:vector ETV
attr interpolationmode sample-hold
attr source "count(packetPushed) - count(packetPopped) - count(packetRemoved) - count(packetDropped)"
attr title "queue length, vector"
vector 27 scenario.client1.ppp[0].ppp.queue packetPopped:vector(packetBytes) ETV
attr interpolationmode none
attr title "packet popped, vector(packetBytes)"
vector 28 scenario.client1.ppp[0].ppp.queue queueingTime:vector ETV
attr interpolationmode none
attr source queueingTime(packetPopped)
attr title "queueing times, vector"
attr unit s
vector 29 scenario.client1.ppp[0].ppp txPk:vector(packetBytes) ETV
attr interpolationmode none
attr source packetSentToLower
attr title "packets transmitted, vector(packetBytes)"
vector 30 scenario.client0.ppp[0].ppp rxPkOk:vector(packetBytes) ETV
attr interpolationmode none
attr source rxPkOk
attr title "packets received OK, vector(packetBytes)"
vector 31 scenario.client0.ppp[0].ppp passedUpPk:vector(packetBytes) ETV
attr interpolationmode none
attr source packetSentToUpper
attr title "packets passed to higher layer, vector(packetBytes)"
vector 32 scenario.client0.tcp.conn-0 rcvSeq:vector ETV
attr interpolationmode sample-hold
vector 33 scenario.client0.tcp.conn-0 rcvAck:vector ETV
attr interpolationmode sample-hold
vector 34 scenario.client0.tcp.conn-26 rcvAdv:vector ETV
attr interpolationmode sample-hold
vector 35 scenario.client0.tcp.conn-26 sndWnd:vector ETV
attr interpolationmode sample-hold
vector 36 scenario.client0.tcp.conn-26 tcpRcvQueueBytes:vector ETV
attr interpolationmode sample-hold
vector 37 scenario.client0.tcp.conn-26 rcvWnd:vector ETV
attr interpolationmode sample-hold
vector 38 scenario.client0.tcp.conn-26 sndAck:vector ETV
attr interpolationmode sample-hold
vector 39 scenario.client0.ppp[0].ppp rcvdPkFromHl:vector(packetBytes) ETV
attr interpolationmode none
attr source packetReceivedFromUpper
attr title "packets received from higher layer, vector(packetBytes)"
vector 40 scenario.client0.ppp[0].ppp.queue packetPushed:vector(packetBytes) ETV
attr interpolationmode none
attr title "packet pushed, vector(packetBytes)"
vector 41 scenario.client0.ppp[0].ppp.queue queueLength:vector ETV
attr interpolationmode sample-hold
attr source "count(packetPushed) - count(packetPopped) - count(packetRemoved) - count(packetDropped)"
attr title "queue length, vector"
vector 42 scenario.client0.ppp[0].ppp.queue packetPopped:vector(packetBytes) ETV
attr interpolationmode none
attr title "packet popped, vector(packetBytes)"
vector 43 scenario.client0.ppp[0].ppp.queue queueingTime:vector ETV
attr interpolationmode none
attr source queueingTime(packetPopped)
attr title "queueing times, vector"
attr unit s
vector 44 scenario.client0.ppp[0].ppp txPk:vector(packetBytes) ETV
attr interpolationmode none
attr source packetSentToLower
attr title "packets transmitted, vector(packetBytes)"
vector 45 scenario.client1.ppp[0].ppp rxPkOk:vector(packetBytes) ETV
attr interpolationmode none
attr source rxPkOk
attr title "packets received OK, vector(packetBytes)"
vector 46 scenario.client1.ppp[0].ppp passedUpPk:vector(packetBytes) ETV
attr interpolationmode none
attr source packetSentToUpper
attr title "packets passed to higher layer, vector(packetBytes)"
vector 47 scenario.client1.tcp.conn-25 rcvSeq:vector ETV
attr interpolationmode sample-hold
vector 48 scenario.client1.tcp.conn-25 rcvAck:vector ETV
attr interpolationmode sample-hold
vector 49 scenario.client1.tcp.conn-25 sndWnd:vector ETV
attr interpolationmode sample-hold
vector 50 scenario.client1.tcp.conn-25 unacked:vector ETV
attr interpolationmode sample-hold
vector 51 scenario.client0.tcp.conn-26 rcvSeq:vector ETV
attr interpolationmode sample-hold
vector 52 scenario.client0.tcp.conn-26 rcvAck:vector ETV
attr interpolationmode sample-hold
vector 53 scenario.client0.tcp.conn-26 unacked:vector ETV
attr interpolationmode sample-hold
vector 54 scenario.client0.tcp.conn-26 cwnd:vector ETV
attr interpolationmode sample-hold
vector 55 scenario.client0.tcp.conn-26 ssthresh:vector ETV
attr interpolationmode sample-hold
vector 56 scenario.client0.tcp.conn-26 dupAcks:vector ETV
attr interpolationmode sample-hold
vector 57 scenario.client1.tcp.conn-25 rtt:vector ETV
attr interpolationmode sample-hold
vector 58 scenario.client1.tcp.conn-25 srtt:vector ETV
attr interpolationmode sample-hold
vector 59 scenario.client1.tcp.conn-25 rttvar:vector ETV
attr interpolationmode sample-hold
vector 60 scenario.client1.tcp.conn-25 rto:vector ETV
attr interpolationmode sample-hold
vector 61 scenario.client1.tcp.conn-25 cwnd:vector ETV
attr interpolationmode sample-hold
vector 62 scenario.client1.tcp.conn-25 ssthresh:vector ETV
attr interpolationmode sample-hold
vector 63 scenario.client1.tcp.conn-25 dupAcks:vector ETV
attr interpolationmode sample-hold
vector 64 scenario.client0.tcp.conn-27 tcpRcvQueueBytes:vector ETV
attr interpolationmode sample-hold
vector 65 scenario.client0.tcp.conn-27 rcvAdv:vector ETV
attr interpolationmode sample-hold
vector 66 scenario.client0.tcp.conn-27 rcvWnd:vector ETV
attr interpolationmode sample-hold
vector 67 scenario.client0.tcp.conn-27 sndAck:vector ETV
attr interpolationmode sample-hold
vector 68 scenario.client1.tcp.conn-1 rcvSeq:vector ETV
attr interpolationmode sample-hold
vector 69 scenario.client1.tcp.conn-1 rcvAck:vector ETV
attr interpolationmode sample-hold
vector 70 scenario.client1.tcp.conn-28 rcvAdv:vector ETV
attr interpolationmode sample-hold
vector 71 scenario.client1.tcp.conn-28 sndWnd:vector ETV
attr interpolationmode sample-hold
vector 72 scenario.client1.tcp.conn-28 tcpRcvQueueBytes:vector ETV
attr interpolationmode sample-hold
vector 73 scenario.client1.tcp.conn-28 rcvWnd:vector ETV
attr interpolationmode sample-hold
vector 74 scenario.client1.tcp.conn-28 sndAck:vector ETV
attr interpolationmode sample-hold
vector 75 scenario.client0.tcp.conn-27 rcvSeq:vector ETV
attr interpolationmode sample-hold
vector 76 scenario.client0.tcp.conn-27 rcvAck:vector ETV
attr interpolationmode sample-hold
vector 77 scenario.client0.tcp.conn-27 sndWnd:vector ETV
attr interpolationmode sample-hold
vector 78 scenario.client0.tcp.conn-27 unacked:vector ETV
attr interpolationmode sample-hold
vector 79 scenario.client1.tcp.conn-28 rcvSeq:vector ETV
attr interpolationmode sample-hold
vector 80 scenario.client1.tcp.conn-28 rcvAck:vector ETV
attr interpolationmode sample-hold
vector 81 scenario.client1.tcp.conn-28 unacked:vector ETV
attr interpolationmode sample-hold
vector 82 scenario.client1.tcp.conn-28 cwnd:vector ETV
attr interpolationmode sample-hold
vector 83 scenario.client1.tcp.conn-28 ssthresh:vector ETV
attr interpolationmode sample-hold
vector 84 scenario.client1.tcp.conn-28 dupAcks:vector ETV
attr interpolationmode sample-hold
vector 85 scenario.client0.tcp.conn-27 rtt:vector ETV
attr interpolationmode sample-hold
vector 86 scenario.client0.tcp.conn-27 srtt:vector ETV
attr interpolationmode sample-hold
vector 87 scenario.client0.tcp.conn-27 rttvar:vector ETV
attr interpolationmode sample-hold
vector 88 scenario.client0.tcp.conn-27 rto:vector ETV
attr interpolationmode sample-hold
vector 89 scenario.client0.tcp.conn-27 cwnd:vector ETV
attr interpolationmode sample-hold
vector 90 scenario.client0.tcp.conn-27 ssthresh:vector ETV
attr interpolationmode sample-hold
vector 91 scenario.client0.tcp.conn-27 dupAcks:vector ETV
attr interpolationmode sample-hold
vector 92 scenario.client1.tcp.conn-29 tcpRcvQueueBytes:vector ETV
attr interpolationmode sample-hold
vector 93 scenario.client1.tcp.conn-29 rcvAdv:vector ETV
attr interpolationmode sample-hold
vector 94 scenario.client1.tcp.conn-29 rcvWnd:vector ETV
attr interpolationmode sample-hold
vector 95 scenario.client1.tcp.conn-29 sndAck:vector ETV
attr interpolationmode sample-hold
vector 96 scenario.client1.ppp[1].ppp rcvdPkFromHl:vector(packetBytes) ETV
attr interpolationmode none
attr source packetReceivedFromUpper
attr title "packets received from higher layer, vector(packetBytes)"
vector 97 scenario.client1.ppp[1].ppp.queue packetPushed:vector(packetBytes) ETV
attr interpolationmode none
attr title "packet pushed, vector(packetBytes)"
vector 98 scenario.client1.ppp[1].ppp.queue queueLength:vector ETV
attr interpolationmode sample-hold
attr source "count(packetPushed) - count(packetPopped) - count(packetRemoved) - count(packetDropped)"
attr title "queue length, vector"
vector 99 scenario.client1.ppp[1].ppp.queue packetPopped:vector(packetBytes) ETV
attr interpolationmode none
attr title "packet popped, vector(packetBytes)"
vector 100 scenario.client1.ppp[1].ppp.queue queueingTime:vector ETV
attr interpolationmode none
attr source queueingTime(packetPopped)
attr title "queueing times, vector"
attr unit s
vector 101 scenario.client1.ppp[1].ppp txPk:vector(packetBytes) ETV
attr interpolationmode none
attr source packetSentToLower
attr title "packets transmitted, vector(packetBytes)"
vector 102 scenario.client2.ppp[1].ppp rxPkOk:vector(packetBytes) ETV
attr interpolationmode none
attr source rxPkOk
attr title "packets received OK, vector(packetBytes)"
vector 103 scenario.client2.ppp[1].ppp passedUpPk:vector(packetBytes) ETV
attr interpolationmode none
attr source packetSentToUpper
attr title "packets passed to higher layer, vector(packetBytes)"
vector 104 scenario.client2.tcp.conn-2 rcvSeq:vector ETV
attr interpolationmode sample-hold
vector 105 scenario.client2.tcp.conn-2 rcvAck:vector ETV
attr interpolationmode sample-hold
vector 106 scenario.client2.tcp.conn-30 rcvAdv:vector ETV
attr interpolationmode sample-hold
vector 107 scenario.client2.tcp.conn-30 sndWnd:vector ETV
attr interpolationmode sample-hold
vector 108 scenario.client2.tcp.conn-30 tcpRcvQueueBytes:vector ETV
attr interpolationmode sample-hold
vector 109 scenario.client2.tcp.conn-30 rcvWnd:vector ETV
attr interpolationmode sample-hold
vector 110 scenario.client2.tcp.conn-30 sndAck:vector ETV
attr interpolationmode sample-hold
vector 111 scenario.client2.ppp[1].ppp rcvdPkFromHl:vector(packetBytes) ETV
attr interpolationmode none
attr source packetReceivedFromUpper
attr title "packets received from higher layer, vector(packetBytes)"
vector 112 scenario.client2.ppp[1].ppp.queue packetPushed:vector(packetBytes) ETV
attr interpolationmode none
attr title "packet pushed, vector(packetBytes)"
vector 113 scenario.client2.ppp[1].ppp.queue queueLength:vector ETV
attr interpolationmode sample-hold
attr source "count(packetPushed) - count(packetPopped) - count(packetRemoved) - count(packetDropped)"
attr title "queue length, vector"
vector 114 scenario.client2.ppp[1].ppp.queue packetPopped:vector(packetBytes) ETV
attr interpolationmode none
attr title "packet popped, vector(packetBytes)"
vector 115 scenario.client2.ppp[1].ppp.queue queueingTime:vector ETV
attr interpolationmode none
attr source queueingTime(packetPopped)
attr title "queueing times, vector"
attr unit s
vector 116 scenario.client2.ppp[1].ppp txPk:vector(packetBytes) ETV
attr interpolationmode none
attr source packetSentToLower
attr title "packets transmitted, vector(packetBytes)"
vector 117 scenario.client1.ppp[1].ppp rxPkOk:vector(packetBytes) ETV
attr interpolationmode none
attr source rxPkOk
attr title "packets received OK, vector(packetBytes)"
vector 118 scenario.client1.ppp[1].ppp passedUpPk:vector(packetBytes) ETV
attr interpolationmode none
attr source packetSentToUpper
attr title "packets passed to higher layer, vector(packetBytes)"
vector 119 scenario.client1.tcp.conn-29 rcvSeq:vector ETV
attr interpolationmode sample-hold
vector 120 scenario.client1.tcp.conn-29 rcvAck:vector ETV
attr interpolationmode sample-hold
vector 121 scenario.client1.tcp.conn-29 sndWnd:vector ETV
attr interpolationmode sample-hold
vector 122 scenario.client1.tcp.conn-29 unacked:vector ETV
attr interpolationmode sample-hold
vector 123 scenario.client2.tcp.conn-30 rcvSeq:vector ETV
attr interpolationmode sample-hold
vector 124 scenario.client2.tcp.conn-30 rcvAck:vector ETV
attr interpolationmode sample-hold
vector 125 scenario.client2.tcp.conn-30 unacked:vector ETV
attr interpolationmode sample-hold
vector 126 scenario.client2.tcp.conn-30 cwnd:vector ETV
attr interpolationmode sample-hold
vector 127 scenario.client2.tcp.conn-30 ssthresh:vector ETV
attr interpolationmode sample-hold
vector 128 scenario.client2.tcp.conn-30 dupAcks:vector ETV
attr interpolationmode sample-hold
vector 129 scenario.client1.tcp.conn-29 rtt:vector ETV
attr interpolationmode sample-hold
vector 130 scenario.client1.tcp.conn-29 srtt:vector ETV
attr interpolationmode sample-hold
vector 131 scenario.client1.tcp.conn-29 rttvar:vector ETV
attr interpolationmode sample-hold
vector 132 scenario.client1.tcp.conn-29 rto:vector ETV
attr interpolationmode sample-hold
vector 133 scenario.client1.tcp.conn-29 cwnd:vector ETV
attr interpolationmode sample-hold
vector 134 scenario.client1.tcp.conn-29 ssthresh:vector ETV
attr interpolationmode sample-hold
vector 135 scenario.client1.tcp.conn-29 dupAcks:vector ETV
attr interpolationmode sample-hold
vector 136 scenario.client2.tcp.conn-31 tcpRcvQueueBytes:vector ETV
attr interpolationmode sample-hold
vector 137 scenario.client2.tcp.conn-31 rcvAdv:vector ETV
attr interpolationmode sample-hold
vector 138 scenario.client2.tcp.conn-31 rcvWnd:vector ETV
attr interpolationmode sample-hold
vector 139 scenario.client2.tcp.conn-31 sndAck:vector ETV
attr interpolationmode sample-hold
vector 140 scenario.client1.tcp.conn-32 rcvAdv:vector ETV
attr interpolationmode sample-hold
vector 141 scenario.client1.tcp.conn-32 sndWnd:vector ETV
attr interpolationmode sample-hold
vector 142 scenario.client1.tcp.conn-32 tcpRcvQueueBytes:vector ETV
attr interpolationmode sample-hold
vector 143 scenario.client1.tcp.conn-32 rcvWnd:vector ETV
attr interpolationmode sample-hold
vector 144 scenario.client1.tcp.conn-32 sndAck:vector ETV
attr interpolationmode sample-hold
vector 145 scenario.client2.tcp.conn-31 rcvSeq:vector ETV
attr interpolationmode sample-hold
vector 146 scenario.client2.tcp.conn-31 rcvAck:vector ETV
attr interpolationmode sample-hold
vector 147 scenario.client2.tcp.conn-31 sndWnd:vector ETV
attr interpolationmode sample-hold
vector 148 scenario.client2.tcp.conn-31 unacked:vector ETV
attr interpolationmode sample-hold
vector 149 scenario.client1.tcp.conn-32 rcvSeq:vector ETV
attr interpolationmode sample-hold
vector 150 scenario.client1.tcp.conn-32 rcvAck:vector ETV
attr interpolationmode sample-hold
vector 151 scenario.client1.tcp.conn-32 unacked:vector ETV
attr interpolationmode sample-hold
vector 152 scenario.client1.tcp.conn-32 cwnd:vector ETV
attr interpolationmode sample-hold
vector 153 scenario.client1.tcp.conn-32 ssthresh:vector ETV
attr interpolationmode sample-hold
vector 154 scenario.client1.tcp.conn-32 dupAcks:vector ETV
attr interpolationmode sample-hold
vector 155 scenario.client2.tcp.conn-31 rtt:vector ETV
attr interpolationmode sample-hold
vector 156 scenario.client2.tcp.conn-31 srtt:vector ETV
attr interpolationmode sample-hold
vector 157 scenario.client2.tcp.conn-31 rttvar:vector ETV
attr interpolationmode sample-hold
vector 158 scenario.client2.tcp.conn-31 rto:vector ETV
attr interpolationmode sample-hold
vector 159 scenario.client2.tcp.conn-31 cwnd:vector ETV
attr interpolationmode sample-hold
vector 160 scenario.client2.tcp.conn-31 ssthresh:vector ETV
attr interpolationmode sample-hold
vector 161 scenario.client2.tcp.conn-31 dupAcks:vector ETV
attr interpolationmode sample-hold
vector 162 scenario.client2.tcp.conn-33 tcpRcvQueueBytes:vector ETV
attr interpolationmode sample-hold
vector 163 scenario.client2.tcp.conn-33 rcvAdv:vector ETV
attr interpolationmode sample-hold
vector 164 scenario.client2.tcp.conn-33 rcvWnd:vector ETV
attr interpolationmode sample-hold
vector 165 scenario.client2.tcp.conn-33 sndAck:vector ETV
attr interpolationmode sample-hold
vector 166 scenario.client2.ppp[0].ppp rcvdPkFromHl:vector(packetBytes) ETV
attr interpolationmode none
attr source packetReceivedFromUpper
attr title "packets received from higher layer, vector(packetBytes)"
vector 167 scenario.client2.ppp[0].ppp.queue packetPushed:vector(packetBytes) ETV
attr interpolationmode none
attr title "packet pushed, vector(packetBytes)"
vector 168 scenario.client2.ppp[0].ppp.queue queueLength:vector ETV
attr interpolationmode sample-hold
attr source "count(packetPushed) - count(packetPopped) - count(packetRemoved) - count(packetDropped)"
attr title "queue length, vector"
vector 169 scenario.client2.ppp[0].ppp.queue packetPopped:vector(packetBytes) ETV
attr interpolationmode none
attr title "packet popped, vector(packetBytes)"
vector 170 scenario.client2.ppp[0].ppp.queue queueingTime:vector ETV
attr interpolationmode none
attr source queueingTime(packetPopped)
attr title "queueing times, vector"
attr unit s
vector 171 scenario.client2.ppp[0].ppp txPk:vector(packetBytes) ETV
attr interpolationmode none
attr source packetSentToLower
attr title "packets transmitted, vector(packetBytes)"
vector 172 scenario.client0.ppp[1].ppp rxPkOk:vector(packetBytes) ETV
attr interpolationmode none
attr source rxPkOk
attr title "packets received OK, vector(packetBytes)"
vector 173 scenario.client0.ppp[1].ppp passedUpPk:vector(packetBytes) ETV
attr interpolationmode none
attr source packetSentToUpper
attr title "packets passed to higher layer, vector(packetBytes)"
vector 174 scenario.client0.tcp.conn-34 rcvAdv:vector ETV
attr interpolationmode sample-hold
vector 175 scenario.client0.tcp.conn-34 sndWnd:vector ETV
attr interpolationmode sample-hold
vector 176 scenario.client0.tcp.conn-34 tcpRcvQueueBytes:vector ETV
attr interpolationmode sample-hold
vector 177 scenario.client0.tcp.conn-34 rcvWnd:vector ETV
attr interpolationmode sample-hold
vector 178 scenario.client0.tcp.conn-34 sndAck:vector ETV
attr interpolationmode sample-hold
vector 179 scenario.client0.ppp[1].ppp rcvdPkFromHl:vector(packetBytes) ETV
attr interpolationmode none
attr source packetReceivedFromUpper
attr title "packets received from higher layer, vector(packetBytes)"
vector 180 scenario.client0.ppp[1].ppp.queue packetPushed:vector(packetBytes) ETV
attr interpolationmode none
attr title "packet pushed, vector(packetBytes)"
vector 181 scenario.client0.ppp[1].ppp.queue queueLength:vector ETV
attr interpolationmode sample-hold
attr source "count(packetPushed) - count(packetPopped) - count(packetRemoved) - count(packetDropped)"
attr title "queue length, vector"
vector 182 scenario.client0.ppp[1].ppp.queue packetPopped:vector(packetBytes) ETV
attr interpolationmode none
attr title "packet popped, vector(packetBytes)"
vector 183 scenario.client0.ppp[1].ppp.queue queueingTime:vector ETV
attr interpolationmode none
attr source queueingTime(packetPopped)
attr title "queueing times, vector"
attr unit s
vector 184 scenario.client0.ppp[1].ppp txPk:vector(packetBytes) ETV
attr interpolationmode none
attr source packetSentToLower
attr title "packets transmitted, vector(packetBytes)"
vector 185 scenario.client2.ppp[0].ppp rxPkOk:vector(packetBytes) ETV
attr interpolationmode none
attr source rxPkOk
attr title "packets received OK, vector(packetBytes)"
vector 186 scenario.client2.ppp[0].ppp passedUpPk:vector(packetBytes) ETV
attr interpolationmode none
attr source packetSentToUpper
attr title "packets passed to higher layer, vector(packetBytes)"
vector 187 scenario.client2.tcp.conn-33 rcvSeq:vector ETV
attr interpolationmode sample-hold
vector 188 scenario.client2.tcp.conn-33 rcvAck:vector ETV
attr interpolationmode sample-hold
vector 189 scenario.client2.tcp.conn-33 sndWnd:vector ETV
attr interpolationmode sample-hold
vector 190 scenario.client2.tcp.conn-33 unacked:vector ETV
attr interpolationmode sample-hold
vector 191 scenario.client0.tcp.conn-34 rcvSeq:vector ETV
attr interpolationmode sample-hold
vector 192 scenario.client0.tcp.conn-34 rcvAck:vector ETV
attr interpolationmode sample-hold
vector 193 scenario.client0.tcp.conn-34 unacked:vector ETV
attr interpolationmode sample-hold
vector 194 scenario.client0.tcp.conn-34 cwnd:vector ETV
attr interpolationmode sample-hold
vector 195 scenario.client0.tcp.conn-34 ssthresh:vector ETV
attr interpolationmode sample-hold
vector 196 scenario.client0.tcp.conn-34 dupAcks:vector ETV
attr interpolationmode sample-hold
vector 197 scenario.client2.tcp.conn-33 rtt:vector ETV
attr interpolationmode sample-hold
vector 198 scenario.client2.tcp.conn-33 srtt:vector ETV
attr interpolationmode sample-hold
vector 199 scenario.client2.tcp.conn-33 rttvar:vector ETV
attr interpolationmode sample-hold
vector 200 scenario.client2.tcp.conn-33 rto:vector ETV
attr interpolationmode sample-hold
vector 201 scenario.client2.tcp.conn-33 cwnd:vector ETV
attr interpolationmode sample-hold
vector 202 scenario.client2.tcp.conn-33 ssthresh:vector ETV
attr interpolationmode sample-hold
vector 203 scenario.client2.tcp.conn-33 dupAcks:vector ETV
attr interpolationmode sample-hold
vector 204 scenario.client0.tcp.conn-35 tcpRcvQueueBytes:vector ETV
attr interpolationmode sample-hold
vector 205 scenario.client0.tcp.conn-35 rcvAdv:vector ETV
attr interpolationmode sample-hold
vector 206 scenario.client0.tcp.conn-35 rcvWnd:vector ETV
attr interpolationmode sample-hold
vector 207 scenario.client0.tcp.conn-35 sndAck:vector ETV
attr interpolationmode sample-hold
vector 208 scenario.client2.tcp.conn-36 rcvAdv:vector ETV
attr interpolationmode sample-hold
vector 209 scenario.client2.tcp.conn-36 sndWnd:vector ETV
attr interpolationmode sample-hold
vector 210 scenario.client2.tcp.conn-36 tcpRcvQueueBytes:vector ETV
attr interpolationmode sample-hold
vector 211 scenario.client2.tcp.conn-36 rcvWnd:vector ETV
attr interpolationmode sample-hold
vector 212 scenario.client2.tcp.conn-36 sndAck:vector ETV
attr interpolationmode sample-hold
vector 213 scenario.client0.tcp.conn-35 rcvSeq:vector ETV
attr interpolationmode sample-hold
vector 214 scenario.client0.tcp.conn-35 rcvAck:vector ETV
attr interpolationmode sample-hold
vector 215 scenario.client0.tcp.conn-35 sndWnd:vector ETV
attr interpolationmode sample-hold
vector 216 scenario.client0.tcp.conn-35 unacked:vector ETV
attr interpolationmode sample-hold
vector 217 scenario.client2.tcp.conn-36 rcvSeq:vector ETV
attr interpolationmode sample-hold
vector 218 scenario.client2.tcp.conn-36 rcvAck:vector ETV
attr interpolationmode sample-hold
vector 219 scenario.client2.tcp.conn-36 unacked:vector ETV
attr interpolationmode sample-hold
vector 220 scenario.client2.tcp.conn-36 cwnd:vector ETV
attr interpolationmode sample-hold
vector 221 scenario.client2.tcp.conn-36 ssthresh:vector ETV
attr interpolationmode sample-hold
vector 222 scenario.client2.tcp.conn-36 dupAcks:vector ETV
attr interpolationmode sample-hold
vector 223 scenario.client0.tcp.conn-35 rtt:vector ETV
attr interpolationmode sample-hold
vector 224 scenario.client0.tcp.conn-35 srtt:vector ETV
attr interpolationmode sample-hold
vector 225 scenario.client0.tcp.conn-35 rttvar:vector ETV
attr interpolationmode sample-hold
vector 226 scenario.client0.tcp.conn-35 rto:vector ETV
attr interpolationmode sample-hold
vector 227 scenario.client0.tcp.conn-35 cwnd:vector ETV
attr interpolationmode sample-hold
vector 228 scenario.client0.tcp.conn-35 ssthresh:vector ETV
attr interpolationmode sample-hold
vector 229 scenario.client0.tcp.conn-35 dupAcks:vector ETV
attr interpolationmode sample-hold
vector 230 scenario.client3.tcp.conn-37 tcpRcvQueueBytes:vector ETV
attr interpolationmode sample-hold
vector 231 scenario.client3.tcp.conn-37 rcvAdv:vector ETV
attr interpolationmode sample-hold
vector 232 scenario.client3.tcp.conn-37 rcvWnd:vector ETV
attr interpolationmode sample-hold
vector 233 scenario.client3.tcp.conn-37 sndAck:vector ETV
attr interpolationmode sample-hold
vector 234 scenario.client3.ppp[2].ppp rcvdPkFromHl:vector(packetBytes) ETV
attr interpolationmode none
attr source packetReceivedFromUpper
attr title "packets received from higher layer, vector(packetBytes)"
vector 235 scenario.client3.ppp[2].ppp.queue packetPushed:vector(packetBytes) ETV
attr interpolationmode none
attr title "packet pushed, vector(packetBytes)"
vector 236 scenario.client3.ppp[2].ppp.queue queueLength:vector ETV
attr interpolationmode sample-hold
attr source "count(packetPushed) - count(packetPopped) - count(packetRemoved) - count(packetDropped)"
attr title "queue length, vector"
vector 237 scenario.client3.ppp[2].ppp.queue packetPopped:vector(packetBytes) ETV
attr interpolationmode none
attr title "packet popped, vector(packetBytes)"
vector 238 scenario.client3.ppp[2].ppp.queue queueingTime:vector ETV
attr interpolationmode none
attr source queueingTime(packetPopped)
attr title "queueing times, vector"
attr unit s
vector 239 scenario.client3.ppp[2].ppp txPk:vector(packetBytes) ETV
attr interpolationmode none
attr source packetSentToLower
attr title "packets transmitted, vector(packetBytes)"
vector 240 scenario.client2.ppp[2].ppp rxPkOk:vector(packetBytes) ETV
attr interpolationmode none
attr source rxPkOk
attr title "packets received OK, vector(packetBytes)"
vector 241 scenario.client2.ppp[2].ppp passedUpPk:vector(packetBytes) ETV
attr interpolationmode none
attr source packetSentToUpper
attr title "packets passed to higher layer, vector(packetBytes)"
vector 242 scenario.client2.tcp.conn-38 rcvAdv:vector ETV
attr interpolationmode sample-hold
vector 243 scenario.client2.tcp.conn-38 sndWnd:vector ETV
attr interpolationmode sample-hold
vector 244 scenario.client2.tcp.conn-38 tcpRcvQueueBytes:vector ETV
attr interpolationmode sample-hold
vector 245 scenario.client2.tcp.conn-38 rcvWnd:vector ETV
attr interpolationmode sample-hold
vector 246 scenario.client2.tcp.conn-38 sndAck:vector ETV
attr interpolationmode sample-hold
vector 247 scenario.client2.ppp[2].ppp rcvdPkFromHl:vector(packetBytes) ETV
attr interpolationmode none
attr source packetReceivedFromUpper
attr title "packets received from higher layer, vector(packetBytes)"
vector 248 scenario.client2.ppp[2].ppp.queue packetPushed:vector(packetBytes) ETV
attr interpolationmode none
attr title "packet pushed, vector(packetBytes)"
vector 249 scenario.client2.ppp[2].ppp.queue queueLength:vector ETV
attr interpolationmode sample-hold
attr source "count(packetPushed) - count(packetPopped) - count(packetRemoved) - count(packetDropped)"
attr title "queue length, vector"
vector 250 scenario.client2.ppp[2].ppp.queue packetPopped:vector(packetBytes) ETV
attr interpolationmode none
attr title "packet popped, vector(packetBytes)"
vector 251 scenario.client2.ppp[2].ppp.queue queueingTime:vector ETV
attr interpolationmode none
attr source queueingTime(packetPopped)
attr title "queueing times, vector"
attr unit s
vector 252 scenario.client2.ppp[2].ppp txPk:vector(packetBytes) ETV
attr interpolationmode none
attr source packetSentToLower
attr title "packets transmitted, vector(packetBytes)"
vector 253 scenario.client3.ppp[2].ppp rxPkOk:vector(packetBytes) ETV
attr interpolationmode none
attr source rxPkOk
attr title "packets received OK, vector(packetBytes)"
vector 254 scenario.client3.ppp[2].ppp passedUpPk:vector(packetBytes) ETV
attr interpolationmode none
attr source packetSentToUpper
attr title "packets passed to higher layer, vector(packetBytes)"
vector 255 scenario.client3.tcp.conn-37 rcvSeq:vector ETV
attr interpolationmode sample-hold
vector 256 scenario.client3.tcp.conn-37 rcvAck:vector ETV
attr interpolationmode sample-hold
vector 257 scenario.client3.tcp.conn-37 sndWnd:vector ETV
attr interpolationmode sample-hold
vector 258 scenario.client3.tcp.conn-37 unacked:vector ETV
attr interpolationmode sample-hold
vector 259 scenario.client2.tcp.conn-38 rcvSeq:vector ETV
attr interpolationmode sample-hold
vector 260 scenario.client2.tcp.conn-38 rcvAck:vector ETV
attr interpolationmode sample-hold
vector 261 scenario.client2.tcp.conn-38 unacked:vector ETV
attr interpolationmode sample-hold
vector 262 scenario.client2.tcp.conn-38 cwnd:vector ETV
attr interpolationmode sample-hold
vector 263 scenario.client2.tcp.conn-38 ssthresh:vector ETV
attr interpolationmode sample-hold
vector 264 scenario.client2.tcp.conn-38 dupAcks:vector ETV
attr interpolationmode sample-hold
vector 265 scenario.client3.tcp.conn-37 rtt:vector ETV
attr interpolationmode sample-hold
vector 266 scenario.client3.tcp.conn-37 srtt:vector ETV
attr interpolationmode sample-hold
vector 267 scenario.client3.tcp.conn-37 rttvar:vector ETV
attr interpolationmode sample-hold
vector 268 scenario.client3.tcp.conn-37 rto:vector ETV
attr interpolationmode sample-hold
vector 269 scenario.client3.tcp.conn-37 cwnd:vector ETV
attr interpolationmode sample-hold
vector 270 scenario.client3.tcp.conn-37 ssthresh:vector ETV
attr interpolationmode sample-hold
vector 271 scenario.client3.tcp.conn-37 dupAcks:vector ETV
attr interpolationmode sample-hold
vector 272 scenario.client3.tcp.conn-39 tcpRcvQueueBytes:vector ETV
attr interpolationmode sample-hold
vector 273 scenario.client3.tcp.conn-39 rcvAdv:vector ETV
attr interpolationmode sample-hold
vector 274 scenario.client3.tcp.conn-39 rcvWnd:vector ETV
attr interpolationmode sample-hold
vector 275 scenario.client3.tcp.conn-39 sndAck:vector ETV
attr interpolationmode sample-hold
vector 276 scenario.client3.ppp[0].ppp rcvdPkFromHl:vector(packetBytes) ETV
attr interpolationmode none
attr source packetReceivedFromUpper
attr title "packets received from higher layer, vector(packetBytes)"
vector 277 scenario.client3.ppp[0].ppp.queue packetPushed:vector(packetBytes) ETV
attr interpolationmode none
attr title "packet pushed, vector(packetBytes)"
vector 278 scenario.client3.ppp[0].ppp.queue queueLength:vector ETV
attr interpolationmode sample-hold
attr source "count(packetPushed) - count(packetPopped) - count(packetRemoved) - count(packetDropped)"
attr title "queue length, vector"
vector 279 scenario.client3.ppp[0].ppp.queue packetPopped:vector(packetBytes) ETV
attr interpolationmode none
attr title "packet popped, vector(packetBytes)"
vector 280 scenario.client3.ppp[0].ppp.queue queueingTime:vector ETV
attr interpolationmode none
attr source queueingTime(packetPopped)
attr title "queueing times, vector"
attr unit s
vector 281 scenario.client3.ppp[0].ppp txPk:vector(packetBytes) ETV
attr interpolationmode none
attr source packetSentToLower
attr title "packets transmitted, vector(packetBytes)"
vector 282 scenario.client0.ppp[2].ppp rxPkOk:vector(packetBytes) ETV
attr interpolationmode none
attr source rxPkOk
attr title "packets received OK, vector(packetBytes)"
vector 283 scenario.client0.ppp[2].ppp passedUpPk:vector(packetBytes) ETV
attr interpolationmode none
attr source packetSentToUpper
attr title "packets passed to higher layer, vector(packetBytes)"
vector 284 scenario.client0.tcp.conn-40 rcvAdv:vector ETV
attr interpolationmode sample-hold
vector 285 scenario.client0.tcp.conn-40 sndWnd:vector ETV
attr interpolationmode sample-hold
vector 286 scenario.client0.tcp.conn-40 tcpRcvQueueBytes:vector ETV
attr interpolationmode sample-hold
vector 287 scenario.client0.tcp.conn-40 rcvWnd:vector ETV
attr interpolationmode sample-hold
vector 288 scenario.client0.tcp.conn-40 sndAck:vector ETV
attr interpolationmode sample-hold
vector 289 scenario.client0.ppp[2].ppp rcvdPkFromHl:vector(packetBytes) ETV
attr interpolationmode none
attr source packetReceivedFromUpper
attr title "packets received from higher layer, vector(packetBytes)"
vector 290 scenario.client0.ppp[2].ppp.queue packetPushed:vector(packetBytes) ETV
attr interpolationmode none
attr title "packet pushed, vector(packetBytes)"
vector 291 scenario.client0.ppp[2].ppp.queue queueLength:vector ETV
attr interpolationmode sample-hold
attr source "count(packetPushed) - count(packetPopped) - count(packetRemoved) - count(packetDropped)"
attr title "queue length, vector"
vector 292 scenario.client0.ppp[2].ppp.queue packetPopped:vector(packetBytes) ETV
attr interpolationmode none
attr title "packet popped, vector(packetBytes)"
vector 293 scenario.client0.ppp[2].ppp.queue queueingTime:vector ETV
attr interpolationmode none
attr source queueingTime(packetPopped)
attr title "queueing times, vector"
attr unit s
vector 294 scenario.client0.ppp[2].ppp txPk:vector(packetBytes) ETV
attr interpolationmode none
attr source packetSentToLower
attr title "packets transmitted, vector(packetBytes)"
vector 295 scenario.client3.ppp[0].ppp rxPkOk:vector(packetBytes) ETV
attr interpolationmode none
attr source rxPkOk
attr title "packets received OK, vector(packetBytes)"
vector 296 scenario.client3.ppp[0].ppp passedUpPk:vector(packetBytes) ETV
attr interpolationmode none
attr source packetSentToUpper
attr title "packets passed to higher layer, vector(packetBytes)"
vector 297 scenario.client3.tcp.conn-39 rcvSeq:vector ETV
attr interpolationmode sample-hold
vector 298 scenario.client3.tcp.conn-39 rcvAck:vector ETV
attr interpolationmode sample-hold
vector 299 scenario.client3.tcp.conn-39 sndWnd:vector ETV
attr interpolationmode sample-hold
vector 300 scenario.client3.tcp.conn-39 unacked:vector ETV
attr interpolationmode sample-hold
vector 301 scenario.client0.tcp.conn-40 rcvSeq:vector ETV
attr interpolationmode sample-hold
vector 302 scenario.client0.tcp.conn-40 rcvAck:vector ETV
attr interpolationmode sample-hold
vector 303 scenario.client0.tcp.conn-40 unacked:vector ETV
attr interpolationmode sample-hold
vector 304 scenario.client0.tcp.conn-40 cwnd:vector ETV
attr interpolationmode sample-hold
vector 305 scenario.client0.tcp.conn-40 ssthresh:vector ETV
attr interpolationmode sample-hold
vector 306 scenario.client0.tcp.conn-40 dupAcks:vector ETV
attr interpolationmode sample-hold
vector 307 scenario.client3.tcp.conn-39 rtt:vector ETV
attr interpolationmode sample-hold
vector 308 scenario.client3.tcp.conn-39 srtt:vector ETV
attr interpolationmode sample-hold
vector 309 scenario.client3.tcp.conn-39 rttvar:vector ETV
attr interpolationmode sample-hold
vector 310 scenario.client3.tcp.conn-39 rto:vector ETV
attr interpolationmode sample-hold
vector 311 scenario.client3.tcp.conn-39 cwnd:vector ETV
attr interpolationmode sample-hold
vector 312 scenario.client3.tcp.conn-39 ssthresh:vector ETV
attr interpolationmode sample-hold
vector 313 scenario.client3.tcp.conn-39 dupAcks:vector ETV
attr interpolationmode sample-hold
vector 314 scenario.client3.tcp.conn-41 tcpRcvQueueBytes:vector ETV
attr interpolationmode sample-hold
vector 315 scenario.client3.tcp.conn-41 rcvAdv:vector ETV
attr interpolationmode sample-hold
vector 316 scenario.client3.tcp.conn-41 rcvWnd:vector ETV
attr interpolationmode sample-hold
vector 317 scenario.client3.tcp.conn-41 sndAck:vector ETV
attr interpolationmode sample-hold
vector 318 scenario.client3.ppp[1].ppp rcvdPkFromHl:vector(packetBytes) ETV
attr interpolationmode none
attr source packetReceivedFromUpper
attr title "packets received from higher layer, vector(packetBytes)"
vector 319 scenario.client3.ppp[1].ppp.queue packetPushed:vector(packetBytes) ETV
attr interpolationmode none
attr title "packet pushed, vector(packetBytes)"
vector 320 scenario.client3.ppp[1].ppp.queue queueLength:vector ETV
attr interpolationmode sample-hold
attr source "count(packetPushed) - count(packetPopped) - count(packetRemoved) - count(packetDropped)"
attr title "queue length, vector"
vector 321 scenario.client3.ppp[1].ppp.queue packetPopped:vector(packetBytes) ETV
attr interpolationmode none
attr title "packet popped, vector(packetBytes)"
vector 322 scenario.client3.ppp[1].ppp.queue queueingTime:vector ETV
attr interpolationmode none
attr source queueingTime(packetPopped)
attr title "queueing times, vector"
attr unit s
vector 323 scenario.client3.ppp[1].ppp txPk:vector(packetBytes) ETV
attr interpolationmode none
attr source packetSentToLower
attr title "packets transmitted, vector(packetBytes)"
vector 324 scenario.client1.ppp[2].ppp rxPkOk:vector(packetBytes) ETV
attr interpolationmode none
attr source rxPkOk
attr title "packets received OK, vector(packetBytes)"
vector 325 scenario.client1.ppp[2].ppp passedUpPk:vector(packetBytes) ETV
attr interpolationmode none
attr source packetSentToUpper
attr title "packets passed to higher layer, vector(packetBytes)"
vector 326 scenario.client1.tcp.conn-42 rcvAdv:vector ETV
attr interpolationmode sample-hold
vector 327 scenario.client1.tcp.conn-42 sndWnd:vector ETV
attr interpolationmode sample-hold
vector 328 scenario.client1.tcp.conn-42 tcpRcvQueueBytes:vector ETV
attr interpolationmode sample-hold
vector 329 scenario.client1.tcp.conn-42 rcvWnd:vector ETV
attr interpolationmode sample-hold
vector 330 scenario.client1.tcp.conn-42 sndAck:vector ETV
attr interpolationmode sample-hold
vector 331 scenario.client1.ppp[2].ppp rcvdPkFromHl:vector(packetBytes) ETV
attr interpolationmode none
attr source packetReceivedFromUpper
attr title "packets received from higher layer, vector(packetBytes)"
vector 332 scenario.client1.ppp[2].ppp.queue packetPushed:vector(packetBytes) ETV
attr interpolationmode none
attr title "packet pushed, vector(packetBytes)"
vector 333 scenario.client1.ppp[2].ppp.queue queueLength:vector ETV
attr interpolationmode sample-hold
attr source "count(packetPushed) - count(packetPopped) - count(packetRemoved) - count(packetDropped)"
attr title "queue length, vector"
vector 334 scenario.client1.ppp[2].ppp.queue packetPopped:vector(packetBytes) ETV
attr interpolationmode none
attr title "packet popped, vector(packetBytes)"
vector 335 scenario.client1.ppp[2].ppp.queue queueingTime:vector ETV
attr interpolationmode none
attr source queueingTime(packetPopped)
attr title "queueing times, vector"
attr unit s
vector 336 scenario.client1.ppp[2].ppp txPk:vector(packetBytes) ETV
attr interpolationmode none
attr source packetSentToLower
attr title "packets transmitted, vector(packetBytes)"
vector 337 scenario.client3.ppp[1].ppp rxPkOk:vector(packetBytes) ETV
attr interpolationmode none
attr source rxPkOk
attr title "packets received OK, vector(packetBytes)"
vector 338 scenario.client3.ppp[1].ppp passedUpPk:vector(packetBytes) ETV
attr interpolationmode none
attr source packetSentToUpper
attr title "packets passed to higher layer, vector(packetBytes)"
vector 339 scenario.client3.tcp.conn-41 rcvSeq:vector ETV
attr interpolationmode sample-hold
vector 340 scenario.client3.tcp.conn-41 rcvAck:vector ETV
attr interpolationmode sample-hold
vector 341 scenario.client3.tcp.conn-41 sndWnd:vector ETV
attr interpolationmode sample-hold
vector 342 scenario.client3.tcp.conn-41 unacked:vector ETV
attr interpolationmode sample-hold
vector 343 scenario.client1.tcp.conn-42 rcvSeq:vector ETV
attr interpolationmode sample-hold
vector 344 scenario.client1.tcp.conn-42 rcvAck:vector ETV
attr interpolationmode sample-hold
vector 345 scenario.client1.tcp.conn-42 unacked:vector ETV
attr interpolationmode sample-hold
vector 346 scenario.client1.tcp.conn-42 cwnd:vector ETV
attr interpolationmode sample-hold
vector 347 scenario.client1.tcp.conn-42 ssthresh:vector ETV
attr interpolationmode sample-hold
vector 348 scenario.client1.tcp.conn-42 dupAcks:vector ETV
attr interpolationmode sample-hold
vector 349 scenario.client3.tcp.conn-41 rtt:vector ETV
attr interpolationmode sample-hold
vector 350 scenario.client3.tcp.conn-41 srtt:vector ETV
attr interpolationmode sample-hold
vector 351 scenario.client3.tcp.conn-41 rttvar:vector ETV
attr interpolationmode sample-hold
vector 352 scenario.client3.tcp.conn-41 rto:vector ETV
attr interpolationmode sample-hold
vector 353 scenario.client3.tcp.conn-41 cwnd:vector ETV
attr interpolationmode sample-hold
vector 354 scenario.client3.tcp.conn-41 ssthresh:vector ETV
attr interpolationmode sample-hold
vector 355 scenario.client3.tcp.conn-41 dupAcks:vector ETV
attr interpolationmode sample-hold
vector 356 scenario.client0.tcp.conn-43 tcpRcvQueueBytes:vector ETV
attr interpolationmode sample-hold
vector 357 scenario.client0.tcp.conn-43 rcvAdv:vector ETV
attr interpolationmode sample-hold
vector 358 scenario.client0.tcp.conn-43 rcvWnd:vector ETV
attr interpolationmode sample-hold
vector 359 scenario.client0.tcp.conn-43 sndAck:vector ETV
attr interpolationmode sample-hold
vector 360 scenario.client3.tcp.conn-3 rcvSeq:vector ETV
attr interpolationmode sample-hold
vector 361 scenario.client3.tcp.conn-3 rcvAck:vector ETV
attr interpolationmode sample-hold
vector 362 scenario.client3.tcp.conn-44 rcvAdv:vector ETV
attr interpolationmode sample-hold
vector 363 scenario.client3.tcp.conn-44 sndWnd:vector ETV
attr interpolationmode sample-hold
vector 364 scenario.client3.tcp.conn-44 tcpRcvQueueBytes:vector ETV
attr interpolationmode sample-hold
vector 365 scenario.client3.tcp.conn-44 rcvWnd:vector ETV
attr interpolationmode sample-hold
vector 366 scenario.client3.tcp.conn-44 sndAck:vector ETV
attr interpolationmode sample-hold
vector 367 scenario.client0.tcp.conn-43 rcvSeq:vector ETV
attr interpolationmode sample-hold
vector 368 scenario.client0.tcp.conn-43 rcvAck:vector ETV
attr interpolationmode sample-hold
vector 369 scenario.client0.tcp.conn-43 sndWnd:vector ETV
attr interpolationmode sample-hold
vector 370 scenario.client0.tcp.conn-43 unacked:vector ETV
attr interpolationmode sample-hold
vector 371 scenario.client3.tcp.conn-44 rcvSeq:vector ETV
attr interpolationmode sample-hold
vector 372 scenario.client3.tcp.conn-44 rcvAck:vector ETV
attr interpolationmode sample-hold
vector 373 scenario.client3.tcp.conn-44 unacked:vector ETV
attr interpolationmode sample-hold
vector 374 scenario.client3.tcp.conn-44 cwnd:vector ETV
attr interpolationmode sample-hold
vector 375 scenario.client3.tcp.conn-44 ssthresh:vector ETV
attr interpolationmode sample-hold
vector 376 scenario.client3.tcp.conn-44 dupAcks:vector ETV
attr interpolationmode sample-hold
vector 377 scenario.client0.tcp.conn-43 rtt:vector ETV
attr interpolationmode sample-hold
vector 378 scenario.client0.tcp.conn-43 srtt:vector ETV
attr interpolationmode sample-hold
vector 379 scenario.client0.tcp.conn-43 rttvar:vector ETV
attr interpolationmode sample-hold
vector 380 scenario.client0.tcp.conn-43 rto:vector ETV
attr interpolationmode sample-hold
vector 381 scenario.client0.tcp.conn-43 cwnd:vector ETV
attr interpolationmode sample-hold
vector 382 scenario.client0.tcp.conn-43 ssthresh:vector ETV
attr interpolationmode sample-hold
vector 383 scenario.client0.tcp.conn-43 dupAcks:vector ETV
attr interpolationmode sample-hold
vector 384 scenario.client2.tcp.conn-45 tcpRcvQueueBytes:vector ETV
attr interpolationmode sample-hold
vector 385 scenario.client2.tcp.conn-45 rcvAdv:vector ETV
attr interpolationmode sample-hold
vector 386 scenario.client2.tcp.conn-45 rcvWnd:vector ETV
attr interpolationmode sample-hold
vector 387 scenario.client2.tcp.conn-45 sndAck:vector ETV
attr interpolationmode sample-hold
vector 388 scenario.client3.tcp.conn-46 rcvAdv:vector ETV
attr interpolationmode sample-hold
vector 389 scenario.client3.tcp.conn-46 sndWnd:vector ETV
attr interpolationmode sample-hold
vector 390 scenario.client3.tcp.conn-46 tcpRcvQueueBytes:vector ETV
attr interpolationmode sample-hold
vector 391 scenario.client3.tcp.conn-46 rcvWnd:vector ETV
attr interpolationmode sample-hold
vector 392 scenario.client3.tcp.conn-46 sndAck:vector ETV
attr interpolationmode sample-hold
vector 393 scenario.client2.tcp.conn-45 rcvSeq:vector ETV
attr interpolationmode sample-hold
vector 394 scenario.client2.tcp.conn-45 rcvAck:vector ETV
attr interpolationmode sample-hold
vector 395 scenario.client2.tcp.conn-45 sndWnd:vector ETV
attr interpolationmode sample-hold
vector 396 scenario.client2.tcp.conn-45 unacked:vector ETV
attr interpolationmode sample-hold
vector 397 scenario.client3.tcp.conn-46 rcvSeq:vector ETV
attr interpolationmode sample-hold
vector 398 scenario.client3.tcp.conn-46 rcvAck:vector ETV
attr interpolationmode sample-hold
vector 399 scenario.client3.tcp.conn-46 unacked:vector ETV
attr interpolationmode sample-hold
vector 400 scenario.client3.tcp.conn-46 cwnd:vector ETV
attr interpolationmode sample-hold
vector 401 scenario.client3.tcp.conn-46 ssthresh:vector ETV
attr interpolationmode sample-hold
vector 402 scenario.client3.tcp.conn-46 dupAcks:vector ETV
attr interpolationmode sample-hold
vector 403 scenario.client2.tcp.conn-45 rtt:vector ETV
attr interpolationmode sample-hold
vector 404 scenario.client2.tcp.conn-45 srtt:vector ETV
attr interpolationmode sample-hold
vector 405 scenario.client2.tcp.conn-45 rttvar:vector ETV
attr interpolationmode sample-hold
vector 406 scenario.client2.tcp.conn-45 rto:vector ETV
attr interpolationmode sample-hold
vector 407 scenario.client2.tcp.conn-45 cwnd:vector ETV
attr interpolationmode sample-hold
vector 408 scenario.client2.tcp.conn-45 ssthresh:vector ETV
attr interpolationmode sample-hold
vector 409 scenario.client2.tcp.conn-45 dupAcks:vector ETV
attr interpolationmode sample-hold
vector 410 scenario.client1.tcp.conn-47 tcpRcvQueueBytes:vector ETV
attr interpolationmode sample-hold
vector 411 scenario.client1.tcp.conn-47 rcvAdv:vector ETV
attr interpolationmode sample-hold
vector 412 scenario.client1.tcp.conn-47 rcvWnd:vector ETV
attr interpolationmode sample-hold
vector 413 scenario.client1.tcp.conn-47 sndAck:vector ETV
attr interpolationmode sample-hold
vector 414 scenario.client3.tcp.conn-48 rcvAdv:vector ETV
attr interpolationmode sample-hold
vector 415 scenario.client3.tcp.conn-48 sndWnd:vector ETV
attr interpolationmode sample-hold
vector 416 scenario.client3.tcp.conn-48 tcpRcvQueueBytes:vector ETV
attr interpolationmode sample-hold
vector 417 scenario.client3.tcp.conn-48 rcvWnd:vector ETV
attr interpolationmode sample-hold
vector 418 scenario.client3.tcp.conn-48 sndAck:vector ETV
attr interpolationmode sample-hold
vector 419 scenario.client1.tcp.conn-47 rcvSeq:vector ETV
attr interpolationmode sample-hold
vector 420 scenario.client1.tcp.conn-47 rcvAck:vector ETV
attr interpolationmode sample-hold
vector 421 scenario.client1.tcp.conn-47 sndWnd:vector ETV
attr interpolationmode sample-hold
vector 422 scenario.client1.tcp.conn-47 unacked:vector ETV
attr interpolationmode sample-hold
vector 423 scenario.client3.tcp.conn-48 rcvSeq:vector ETV
attr interpolationmode sample-hold
vector 424 scenario.client3.tcp.conn-48 rcvAck:vector ETV
attr interpolationmode sample-hold
vector 425 scenario.client3.tcp.conn-48 unacked:vector ETV
attr interpolationmode sample-hold
vector 426 scenario.client3.tcp.conn-48 cwnd:vector ETV
attr interpolationmode sample-hold
vector 427 scenario.client3.tcp.conn-48 ssthresh:vector ETV
attr interpolationmode sample-hold
vector 428 scenario.client3.tcp.conn-48 dupAcks:vector ETV
attr interpolationmode sample-hold
vector 429 scenario.client1.tcp.conn-47 rtt:vector ETV
attr interpolationmode sample-hold
vector 430 scenario.client1.tcp.conn-47 srtt:vector ETV
attr interpolationmode sample-hold
vector 431 scenario.client1.tcp.conn-47 rttvar:vector ETV
attr interpolationmode sample-hold
vector 432 scenario.client1.tcp.conn-47 rto:vector ETV
attr interpolationmode sample-hold
vector 433 scenario.client1.tcp.conn-47 cwnd:vector ETV
attr interpolationmode sample-hold
vector 434 scenario.client1.tcp.conn-47 ssthresh:vector ETV
attr interpolationmode sample-hold
vector 435 scenario.client1.tcp.conn-47 dupAcks:vector ETV
attr interpolationmode sample-hold
vector 436 scenario.client4.tcp.conn-49 tcpRcvQueueBytes:vector ETV
attr interpolationmode sample-hold
vector 437 scenario.client4.tcp.conn-49 rcvAdv:vector ETV
attr interpolationmode sample-hold
vector 438 scenario.client4.tcp.conn-49 rcvWnd:vector ETV
attr interpolationmode sample-hold
vector 439 scenario.client4.tcp.conn-49 sndAck:vector ETV
attr interpolationmode sample-hold
vector 440 scenario.client4.ppp[1].ppp rcvdPkFromHl:vector(packetBytes) ETV
attr interpolationmode none
attr source packetReceivedFromUpper
attr title "packets received from higher layer, vector(packetBytes)"
vector 441 scenario.client4.ppp[1].ppp.queue packetPushed:vector(packetBytes) ETV
attr interpolationmode none
attr title "packet pushed, vector(packetBytes)"
vector 442 scenario.client4.ppp[1].ppp.queue queueLength:vector ETV
attr interpolationmode sample-hold
attr source "count(packetPushed) - count(packetPopped) - count(packetRemoved) - count(packetDropped)"
attr title "queue length, vector"
vector 443 scenario.client4.ppp[1].ppp.queue packetPopped:vector(packetBytes) ETV
attr interpolationmode none
attr title "packet popped, vector(packetBytes)"
vector 444 scenario.client4.ppp[1].ppp.queue queueingTime:vector ETV
attr interpolationmode none
attr source queueingTime(packetPopped)
attr title "queueing times, vector"
attr unit s
vector 445 scenario.client4.ppp[1].ppp txPk:vector(packetBytes) ETV
attr interpolationmode none
attr source packetSentToLower
attr title "packets transmitted, vector(packetBytes)"
vector 446 scenario.client1.ppp[3].ppp rxPkOk:vector(packetBytes) ETV
attr interpolationmode none
attr source rxPkOk
attr title "packets received OK, vector(packetBytes)"
vector 447 scenario.client1.ppp[3].ppp passedUpPk:vector(packetBytes) ETV
attr interpolationmode none
attr source packetSentToUpper
attr title "packets passed to higher layer, vector(packetBytes)"
vector 448 scenario.client1.tcp.conn-50 rcvAdv:vector ETV
attr interpolationmode sample-hold
vector 449 scenario.client1.tcp.conn-50 sndWnd:vector ETV
attr interpolationmode sample-hold
vector 450 scenario.client1.tcp.conn-50 tcpRcvQueueBytes:vector ETV
attr interpolationmode sample-hold
vector 451 scenario.client1.tcp.conn-50 rcvWnd:vector ETV
attr interpolationmode sample-hold
vector 452 scenario.client1.tcp.conn-50 sndAck:vector ETV
attr interpolationmode sample-hold
vector 453 scenario.client1.ppp[3].ppp rcvdPkFromHl:vector(packetBytes) ETV
attr interpolationmode none
attr source packetReceivedFromUpper
attr title "packets received from higher layer, vector(packetBytes)"
vector 454 scenario.client1.ppp[3].ppp.queue packetPushed:vector(packetBytes) ETV
attr interpolationmode none
attr title "packet pushed, vector(packetBytes)"
vector 455 scenario.client1.ppp[3].ppp.queue queueLength:vector ETV
attr interpolationmode sample-hold
attr source "count(packetPushed) - count(packetPopped) - count(packetRemoved) - count(packetDropped)"
attr title "queue length, vector"
vector 456 scenario.client1.ppp[3].ppp.queue packetPopped:vector(packetBytes) ETV
attr interpolationmode none
attr title "packet popped, vector(packetBytes)"
vector 457 scenario.client1.ppp[3].ppp.queue queueingTime:vector ETV
attr interpolationmode none
attr source queueingTime(packetPopped)
attr title "queueing times, vector"
attr unit s
vector 458 scenario.client1.ppp[3].ppp txPk:vector(packetBytes) ETV
attr interpolationmode none
attr source packetSentToLower
attr title "packets transmitted, vector(packetBytes)"
vector 459 scenario.client4.ppp[1].ppp rxPkOk:vector(packetBytes) ETV
attr interpolationmode none
attr source rxPkOk
attr title "packets received OK, vector(packetBytes)"
vector 460 scenario.client4.ppp[1].ppp passedUpPk:vector(packetBytes) ETV
attr interpolationmode none
attr source packetSentToUpper
attr title "packets passed to higher layer, vector(packetBytes)"
vector 461 scenario.client4.tcp.conn-49 rcvSeq:vector ETV
attr interpolationmode sample-hold
vector 462 scenario.client4.tcp.conn-49 rcvAck:vector ETV
attr interpolationmode sample-hold
vector 463 scenario.client4.tcp.conn-49 sndWnd:vector ETV
attr interpolationmode sample-hold
vector 464 scenario.client4.tcp.conn-49 unacked:vector ETV
attr interpolationmode sample-hold
vector 465 scenario.client1.tcp.conn-50 rcvSeq:vector ETV
attr interpolationmode sample-hold
vector 466 scenario.client1.tcp.conn-50 rcvAck:vector ETV
attr interpolationmode sample-hold
vector 467 scenario.client1.tcp.conn-50 unacked:vector ETV
attr interpolationmode sample-hold
vector 468 scenario.client1.tcp.conn-50 cwnd:vector ETV
attr interpolationmode sample-hold
vector 469 scenario.client1.tcp.conn-50 ssthresh:vector ETV
attr interpolationmode sample-hold
vector 470 scenario.client1.tcp.conn-50 dupAcks:vector ETV
attr interpolationmode sample-hold
vector 471 scenario.client4.tcp.conn-49 rtt:vector ETV
attr interpolationmode sample-hold
vector 472 scenario.client4.tcp.conn-49 srtt:vector ETV
attr interpolationmode sample-hold
vector 473 scenario.client4.tcp.conn-49 rttvar:vector ETV
attr interpolationmode sample-hold
vector 474 scenario.client4.tcp.conn-49 rto:vector ETV
attr interpolationmode sample-hold
vector 475 scenario.client4.tcp.conn-49 cwnd:vector ETV
attr interpolationmode sample-hold
vector 476 scenario.client4.tcp.conn-49 ssthresh:vector ETV
attr interpolationmode sample-hold
vector 477 scenario.client4.tcp.conn-49 dupAcks:vector ETV
attr interpolationmode sample-hold
vector 478 scenario.client4.tcp.conn-51 tcpRcvQueueBytes:vector ETV
attr interpolationmode sample-hold
vector 479 scenario.client4.tcp.conn-51 rcvAdv:vector ETV
attr interpolationmode sample-hold
vector 480 scenario.client4.tcp.conn-51 rcvWnd:vector ETV
attr interpolationmode sample-hold
vector 481 scenario.client4.tcp.conn-51 sndAck:vector ETV
attr interpolationmode sample-hold
vector 482 scenario.client4.ppp[2].ppp rcvdPkFromHl:vector(packetBytes) ETV
attr interpolationmode none
attr source packetReceivedFromUpper
attr title "packets received from higher layer, vector(packetBytes)"
vector 483 scenario.client4.ppp[2].ppp.queue packetPushed:vector(packetBytes) ETV
attr interpolationmode none
attr title "packet pushed, vector(packetBytes)"
vector 484 scenario.client4.ppp[2].ppp.queue queueLength:vector ETV
attr interpolationmode sample-hold
attr source "count(packetPushed) - count(packetPopped) - count(packetRemoved) - count(packetDropped)"
attr title "queue length, vector"
vector 485 scenario.client4.ppp[2].ppp.queue packetPopped:vector(packetBytes) ETV
attr interpolationmode none
attr title "packet popped, vector(packetBytes)"
vector 486 scenario.client4.ppp[2].ppp.queue queueingTime:vector ETV
attr interpolationmode none
attr source queueingTime(packetPopped)
attr title "queueing times, vector"
attr unit s
vector 487 scenario.client4.ppp[2].ppp txPk:vector(packetBytes) ETV
attr interpolationmode none
attr source packetSentToLower
attr title "packets transmitted, vector(packetBytes)"
vector 488 scenario.client2.ppp[3].ppp rxPkOk:vector(packetBytes) ETV
attr interpolationmode none
attr source rxPkOk
attr title "packets received OK, vector(packetBytes)"
vector 489 scenario.client2.ppp[3].ppp passedUpPk:vector(packetBytes) ETV
attr interpolationmode none
attr source packetSentToUpper
attr title "packets passed to higher layer, vector(packetBytes)"
vector 490 scenario.client2.tcp.conn-52 rcvAdv:vector ETV
attr interpolationmode sample-hold
vector 491 scenario.client2.tcp.conn-52 sndWnd:vector ETV
attr interpolationmode sample-hold
vector 492 scenario.client2.tcp.conn-52 tcpRcvQueueBytes:vector ETV
attr interpolationmode sample-hold
vector 493 scenario.client2.tcp.conn-52 rcvWnd:vector ETV
attr interpolationmode sample-hold
vector 494 scenario.client2.tcp.conn-52 sndAck:vector ETV
attr interpolationmode sample-hold
vector 495 scenario.client2.ppp[3].ppp rcvdPkFromHl:vector(packetBytes) ETV
attr interpolationmode none
attr source packetReceivedFromUpper
attr title "packets received from higher layer, vector(packetBytes)"
vector 496 scenario.client2.ppp[3].ppp.queue packetPushed:vector(packetBytes) ETV
attr interpolationmode none
attr title "packet pushed, vector(packetBytes)"
vector 497 scenario.client2.ppp[3].ppp.queue queueLength:vector ETV
attr interpolationmode sample-hold
attr source "count(packetPushed) - count(packetPopped) - count(packetRemoved) - count(packetDropped)"
attr title "queue length, vector"
vector 498 scenario.client2.ppp[3].ppp.queue packetPopped:vector(packetBytes) ETV
attr interpolationmode none
attr title "packet popped, vector(packetBytes)"
vector 499 scenario.client2.ppp[3].ppp.queue queueingTime:vector ETV
attr interpolationmode none
attr source queueingTime(packetPopped)
attr title "queueing times, vector"
attr unit s
vector 500 scenario.client2.ppp[3].ppp txPk:vector(packetBytes) ETV
attr interpolationmode none
attr source packetSentToLower
attr title "packets transmitted, vector(packetBytes)"
vector 501 scenario.client4.ppp[2].ppp rxPkOk:vector(packetBytes) ETV
attr interpolationmode none
attr source rxPkOk
attr title "packets received OK, vector(packetBytes)"
vector 502 scenario.client4.ppp[2].ppp passedUpPk:vector(packetBytes) ETV
attr interpolationmode none
attr source packetSentToUpper
attr title "packets passed to higher layer, vector(packetBytes)"
vector 503 scenario.client4.tcp.conn-51 rcvSeq:vector ETV
attr interpolationmode sample-hold
vector 504 scenario.client4.tcp.conn-51 rcvAck:vector ETV
attr interpolationmode sample-hold
vector 505 scenario.client4.tcp.conn-51 sndWnd:vector ETV
attr interpolationmode sample-hold
vector 506 scenario.client4.tcp.conn-51 unacked:vector ETV
attr interpolationmode sample-hold
vector 507 scenario.client2.tcp.conn-52 rcvSeq:vector ETV
attr interpolationmode sample-hold
vector 508 scenario.client2.tcp.conn-52 rcvAck:vector ETV
attr interpolationmode sample-hold
vector 509 scenario.client2.tcp.conn-52 unacked:vector ETV
attr interpolationmode sample-hold
vector 510 scenario.client2.tcp.conn-52 cwnd:vector ETV
attr interpolationmode sample-hold
vector 511 scenario.client2.tcp.conn-52 ssthresh:vector ETV
attr interpolationmode sample-hold
vector 512 scenario.client2.tcp.conn-52 dupAcks:vector ETV
attr interpolationmode sample-hold
vector 513 scenario.client4.tcp.conn-51 rtt:vector ETV
attr interpolationmode sample-hold
vector 514 scenario.client4.tcp.conn-51 srtt:vector ETV
attr interpolationmode sample-hold
vector 515 scenario.client4.tcp.conn-51 rttvar:vector ETV
attr interpolationmode sample-hold
vector 516 scenario.client4.tcp.conn-51 rto:vector ETV
attr interpolationmode sample-hold
vector 517 scenario.client4.tcp.conn-51 cwnd:vector ETV
attr interpolationmode sample-hold
vector 518 scenario.client4.tcp.conn-51 ssthresh:vector ETV
attr interpolationmode sample-hold
vector 519 scenario.client4.tcp.conn-51 dupAcks:vector ETV
attr interpolationmode sample-hold
vector 520 scenario.client2.tcp.conn-53 tcpRcvQueueBytes:vector ETV
attr interpolationmode sample-hold
vector 521 scenario.client2.tcp.conn-53 rcvAdv:vector ETV
attr interpolationmode sample-hold
vector 522 scenario.client2.tcp.conn-53 rcvWnd:vector ETV
attr interpolationmode sample-hold
vector 523 scenario.client2.tcp.conn-53 sndAck:vector ETV
attr interpolationmode sample-hold
vector 524 scenario.client4.tcp.conn-4 rcvSeq:vector ETV
attr interpolationmode sample-hold
vector 525 scenario.client4.tcp.conn-4 rcvAck:vector ETV
attr interpolationmode sample-hold
vector 526 scenario.client4.tcp.conn-54 rcvAdv:vector ETV
attr interpolationmode sample-hold
vector 527 scenario.client4.tcp.conn-54 sndWnd:vector ETV
attr interpolationmode sample-hold
vector 528 scenario.client4.tcp.conn-54 tcpRcvQueueBytes:vector ETV
attr interpolationmode sample-hold
vector 529 scenario.client4.tcp.conn-54 rcvWnd:vector ETV
attr interpolationmode sample-hold
vector 530 scenario.client4.tcp.conn-54 sndAck:vector ETV
attr interpolationmode sample-hold
vector 531 scenario.client2.tcp.conn-53 rcvSeq:vector ETV
attr interpolationmode sample-hold
vector 532 scenario.client2.tcp.conn-53 rcvAck:vector ETV
attr interpolationmode sample-hold
vector 533 scenario.client2.tcp.conn-53 sndWnd:vector ETV
attr interpolationmode sample-hold
vector 534 scenario.client2.tcp.conn-53 unacked:vector ETV
attr interpolationmode sample-hold
vector 535 scenario.client4.tcp.conn-54 rcvSeq:vector ETV
attr interpolationmode sample-hold
vector 536 scenario.client4.tcp.conn-54 rcvAck:vector ETV
attr interpolationmode sample-hold
vector 537 scenario.client4.tcp.conn-54 unacked:vector ETV
attr interpolationmode sample-hold
vector 538 scenario.client4.tcp.conn-54 cwnd:vector ETV
attr interpolationmode sample-hold
vector 539 scenario.client4.tcp.conn-54 ssthresh:vector ETV
attr interpolationmode sample-hold
vector 540 scenario.client4.tcp.conn-54 dupAcks:vector ETV
attr interpolationmode sample-hold
vector 541 scenario.client2.tcp.conn-53 rtt:vector ETV
attr interpolationmode sample-hold
vector 542 scenario.client2.tcp.conn-53 srtt:vector ETV
attr interpolationmode sample-hold
vector 543 scenario.client2.tcp.conn-53 rttvar:vector ETV
attr interpolationmode sample-hold
vector 544 scenario.client2.tcp.conn-53 rto:vector ETV
attr interpolationmode sample-hold
vector 545 scenario.client2.tcp.conn-53 cwnd:vector ETV
attr interpolationmode sample-hold
vector 546 scenario.client2.tcp.conn-53 ssthresh:vector ETV
attr interpolationmode sample-hold
vector 547 scenario.client2.tcp.conn-53 dupAcks:vector ETV
attr interpolationmode sample-hold
vector 548 scenario.client4.tcp.conn-55 tcpRcvQueueBytes:vector ETV
attr interpolationmode sample-hold
vector 549 scenario.client4.tcp.conn-55 rcvAdv:vector ETV
attr interpolationmode sample-hold
vector 550 scenario.client4.tcp.conn-55 rcvWnd:vector ETV
attr interpolationmode sample-hold
vector 551 scenario.client4.tcp.conn-55 sndAck:vector ETV
attr interpolationmode sample-hold
vector 552 scenario.client4.ppp[0].ppp rcvdPkFromHl:vector(packetBytes) ETV
attr interpolationmode none
attr source packetReceivedFromUpper
attr title "packets received from higher layer, vector(packetBytes)"
vector 553 scenario.client4.ppp[0].ppp.queue packetPushed:vector(packetBytes) ETV
attr interpolationmode none
attr title "packet pushed, vector(packetBytes)"
vector 554 scenario.client4.ppp[0].ppp.queue queueLength:vector ETV
attr interpolationmode sample-hold
attr source "count(packetPushed) - count(packetPopped) - count(packetRemoved) - count(packetDropped)"
attr title "queue length, vector"
vector 555 scenario.client4.ppp[0].ppp.queue packetPopped:vector(packetBytes) ETV
attr interpolationmode none
attr title "packet popped, vector(packetBytes)"
vector 556 scenario.client4.ppp[0].ppp.queue queueingTime:vector ETV
attr interpolationmode none
attr source queueingTime(packetPopped)
attr title "queueing times, vector"
attr unit s
vector 557 scenario.client4.ppp[0].ppp txPk:vector(packetBytes) ETV
attr interpolationmode none
attr source packetSentToLower
attr title "packets transmitted, vector(packetBytes)"
vector 558 scenario.client0.ppp[3].ppp rxPkOk:vector(packetBytes) ETV
attr interpolationmode none
attr source rxPkOk
attr title "packets received OK, vector(packetBytes)"
vector 559 scenario.client0.ppp[3].ppp passedUpPk:vector(packetBytes) ETV
attr interpolationmode none
attr source packetSentToUpper
attr title "packets passed to higher layer, vector(packetBytes)"
vector 560 scenario.client0.tcp.conn-56 rcvAdv:vector ETV
attr interpolationmode sample-hold
vector 561 scenario.client0.tcp.conn-56 sndWnd:vector ETV
attr interpolationmode sample-hold
vector 562 scenario.client0.tcp.conn-56 tcpRcvQueueBytes:vector ETV
attr interpolationmode sample-hold
vector 563 scenario.client0.tcp.conn-56 rcvWnd:vector ETV
attr interpolationmode sample-hold
vector 564 scenario.client0.tcp.conn-56 sndAck:vector ETV
attr interpolationmode sample-hold
vector 565 scenario.client0.ppp[3].ppp rcvdPkFromHl:vector(packetBytes) ETV
attr interpolationmode none
attr source packetReceivedFromUpper
attr title "packets received from higher layer, vector(packetBytes)"
vector 566 scenario.client0.ppp[3].ppp.queue packetPushed:vector(packetBytes) ETV
attr interpolationmode none
attr title "packet pushed, vector(packetBytes)"
vector 567 scenario.client0.ppp[3].ppp.queue queueLength:vector ETV
attr interpolationmode sample-hold
attr source "count(packetPushed) - count(packetPopped) - count(packetRemoved) - count(packetDropped)"
attr title "queue length, vector"
vector 568 scenario.client0.ppp[3].ppp.queue packetPopped:vector(packetBytes) ETV
attr interpolationmode none
attr title "packet popped, vector(packetBytes)"
vector 569 scenario.client0.ppp[3].ppp.queue queueingTime:vector ETV
attr interpolationmode none
attr source queueingTime(packetPopped)
attr title "queueing times, vector"
attr unit s
vector 570 scenario.client0.ppp[3].ppp txPk:vector(packetBytes) ETV
attr interpolationmode none
attr source packetSentToLower
attr title "packets transmitted, vector(packetBytes)"
vector 571 scenario.client4.ppp[0].ppp rxPkOk:vector(packetBytes) ETV
attr interpolationmode none
attr source rxPkOk
attr title "packets received OK, vector(packetBytes)"
vector 572 scenario.client4.ppp[0].ppp passedUpPk:vector(packetBytes) ETV
attr interpolationmode none
attr source packetSentToUpper
attr title "packets passed to higher layer, vector(packetBytes)"
vector 573 scenario.client4.tcp.conn-55 rcvSeq:vector ETV
attr interpolationmode sample-hold
vector 574 scenario.client4.tcp.conn-55 rcvAck:vector ETV
attr interpolationmode sample-hold
vector 575 scenario.client4.tcp.conn-55 sndWnd:vector ETV
attr interpolationmode sample-hold
vector 576 scenario.client4.tcp.conn-55 unacked:vector ETV
attr interpolationmode sample-hold
vector 577 scenario.client0.tcp.conn-56 rcvSeq:vector ETV
attr interpolationmode sample-hold
vector 578 scenario.client0.tcp.conn-56 rcvAck:vector ETV
attr interpolationmode sample-hold
vector 579 scenario.client0.tcp.conn-56 unacked:vector ETV
attr interpolationmode sample-hold
vector 580 scenario.client0.tcp.conn-56 cwnd:vector ETV
attr interpolationmode sample-hold
vector 581 scenario.client0.tcp.conn-56 ssthresh:vector ETV
attr interpolationmode sample-hold
vector 582 scenario.client0.tcp.conn-56 dupAcks:vector ETV
attr interpolationmode sample-hold
vector 583 scenario.client4.tcp.conn-55 rtt:vector ETV
attr interpolationmode sample-hold
vector 584 scenario.client4.tcp.conn-55 srtt:vector ETV
attr interpolationmode sample-hold
vector 585 scenario.client4.tcp.conn-55 rttvar:vector ETV
attr interpolationmode sample-hold
vector 586 scenario.client4.tcp.conn-55 rto:vector ETV
attr interpolationmode sample-hold
vector 587 scenario.client4.tcp.conn-55 cwnd:vector ETV
attr interpolationmode sample-hold
vector 588 scenario.client4.tcp.conn-55 ssthresh:vector ETV
attr interpolationmode sample-hold
vector 589 scenario.client4.tcp.conn-55 dupAcks:vector ETV
attr interpolationmode sample-hold
vector 590 scenario.client1.tcp.conn-57 tcpRcvQueueBytes:vector ETV
attr interpolationmode sample-hold
vector 591 scenario.client1.tcp.conn-57 rcvAdv:vector ETV
attr interpolationmode sample-hold
vector 592 scenario.client1.tcp.conn-57 rcvWnd:vector ETV
attr interpolationmode sample-hold
vector 593 scenario.client1.tcp.conn-57 sndAck:vector ETV
attr interpolationmode sample-hold
vector 594 scenario.client4.tcp.conn-58 rcvAdv:vector ETV
attr interpolationmode sample-hold
vector 595 scenario.client4.tcp.conn-58 sndWnd:vector ETV
attr interpolationmode sample-hold
vector 596 scenario.client4.tcp.conn-58 tcpRcvQueueBytes:vector ETV
attr interpolationmode sample-hold
vector 597 scenario.client4.tcp.conn-58 rcvWnd:vector ETV
attr interpolationmode sample-hold
vector 598 scenario.client4.tcp.conn-58 sndAck:vector ETV
attr interpolationmode sample-hold
vector 599 scenario.client1.tcp.conn-57 rcvSeq:vector ETV
attr interpolationmode sample-hold
vector 600 scenario.client1.tcp.conn-57 rcvAck:vector ETV
attr interpolationmode sample-hold
vector 601 scenario.client1.tcp.conn-57 sndWnd:vector ETV
attr interpolationmode sample-hold
vector 602 scenario.client1.tcp.conn-57 unacked:vector ETV
attr interpolationmode sample-hold
vector 603 scenario.client4.tcp.conn-58 rcvSeq:vector ETV
attr interpolationmode sample-hold
vector 604 scenario.client4.tcp.conn-58 rcvAck:vector ETV
attr interpolationmode sample-hold
vector 605 scenario.client4.tcp.conn-58 unacked:vector ETV
attr interpolationmode sample-hold
vector 606 scenario.client4.tcp.conn-58 cwnd:vector ETV
attr interpolationmode sample-hold
vector 607 scenario.client4.tcp.conn-58 ssthresh:vector ETV
attr interpolationmode sample-hold
vector 608 scenario.client4.tcp.conn-58 dupAcks:vector ETV
attr interpolationmode sample-hold
vector 609 scenario.client1.tcp.conn-57 rtt:vector ETV
attr interpolationmode sample-hold
vector 610 scenario.client1.tcp.conn-57 srtt:vector ETV
attr interpolationmode sample-hold
vector 611 scenario.client1.tcp.conn-57 rttvar:vector ETV
attr interpolationmode sample-hold
vector 612 scenario.client1.tcp.conn-57 rto:vector ETV
attr interpolationmode sample-hold
vector 613 scenario.client1.tcp.conn-57 cwnd:vector ETV
attr interpolationmode sample-hold
vector 614 scenario.client1.tcp.conn-57 ssthresh:vector ETV
attr interpolationmode sample-hold
vector 615 scenario.client1.tcp.conn-57 dupAcks:vector ETV
attr interpolationmode sample-hold
vector 616 scenario.client0.tcp.conn-59 tcpRcvQueueBytes:vector ETV
attr interpolationmode sample-hold
vector 617 scenario.client0.tcp.conn-59 rcvAdv:vector ETV
attr interpolationmode sample-hold
vector 618 scenario.client0.tcp.conn-59 rcvWnd:vector ETV
attr interpolationmode sample-hold
vector 619 scenario.client0.tcp.conn-59 sndAck:vector ETV
attr interpolationmode sample-hold
vector 620 scenario.client4.tcp.conn-60 rcvAdv:vector ETV
attr interpolationmode sample-hold
vector 621 scenario.client4.tcp.conn-60 sndWnd:vector ETV
attr interpolationmode sample-hold
vector 622 scenario.client4.tcp.conn-60 tcpRcvQueueBytes:vector ETV
attr interpolationmode sample-hold
vector 623 scenario.client4.tcp.conn-60 rcvWnd:vector ETV
attr interpolationmode sample-hold
vector 624 scenario.client4.tcp.conn-60 sndAck:vector ETV
attr interpolationmode sample-hold
vector 625 scenario.client0.tcp.conn-59 rcvSeq:vector ETV
attr interpolationmode sample-hold
vector 626 scenario.client0.tcp.conn-59 rcvAck:vector ETV
attr interpolationmode sample-hold
vector 627 scenario.client0.tcp.conn-59 sndWnd:vector ETV
attr interpolationmode sample-hold
vector 628 scenario.client0.tcp.conn-59 unacked:vector ETV
attr interpolationmode sample-hold
vector 629 scenario.client4.tcp.conn-60 rcvSeq:vector ETV
attr interpolationmode sample-hold
vector 630 scenario.client4.tcp.conn-60 rcvAck:vector ETV
attr interpolationmode sample-hold
vector 631 scenario.client4.tcp.conn-60 unacked:vector ETV
attr interpolationmode sample-hold
vector 632 scenario.client4.tcp.conn-60 cwnd:vector ETV
attr interpolationmode sample-hold
vector 633 scenario.client4.tcp.conn-60 ssthresh:vector ETV
attr interpolationmode sample-hold
vector 634 scenario.client4.tcp.conn-60 dupAcks:vector ETV
attr interpolationmode sample-hold
vector 635 scenario.client0.tcp.conn-59 rtt:vector ETV
attr interpolationmode sample-hold
vector 636 scenario.client0.tcp.conn-59 srtt:vector ETV
attr interpolationmode sample-hold
vector 637 scenario.client0.tcp.conn-59 rttvar:vector ETV
attr interpolationmode sample-hold
vector 638 scenario.client0.tcp.conn-59 rto:vector ETV
attr interpolationmode sample-hold
vector 639 scenario.client0.tcp.conn-59 cwnd:vector ETV
attr interpolationmode sample-hold
vector 640 scenario.client0.tcp.conn-59 ssthresh:vector ETV
attr interpolationmode sample-hold
vector 641 scenario.client0.tcp.conn-59 dupAcks:vector ETV
attr interpolationmode sample-hold
0	78536 25727 0 23727 0 9.070446203558 1011 0 1 505 505
1	104263 26297 0 23779 0 9.073009758356 1033 0 1 516 516
2	130560 397 0 4627 0 7.87085826191 17 0 1 8 8
3	130957 359 0 5310 0 8.011697330241 15 0 1 7 7
4	131316 25777 0 23773 0 9.072739238869 1013 0 1 506 506
5	157093 26283 0 23785 0 9.073093313883 1034 0 1 517 517
6	183376 397 0 2492 0 7.278897696829 17 0 1 8 8
7	183773 359 0 5895 0 8.081584716941 15 0 1 7 7
8	184132 26235 0 23708 0 9.069798351635 1031 0 1 515 515
9	210367 26312 0 23786 0 9.073222351147 1035 0 1 517 517
10	236679 416 0 3667 0 7.658389435713 17 0 1 8 8
11	237095 372 0 7160 0 8.242539335917 15 0 1 7 7
12	237467 414 0 4634 0 7.87173426191 17 0 1 8 8
13	237881 414 0 2522 0 7.279773696829 17 0 1 8 8
14	238295 416 0 3674 0 7.659265435713 17 0 1 8 8
15	238711 10 0 0 0 0 1 0 0 0 0
16	238721 374 0 5296 0 8.010821330241 15 0 1 7 7
17	239095 374 0 5881 0 8.080708716941 15 0 1 7 7
18	239469 372 0 7148 0 8.241663335917 15 0 1 7 7
19	239841 10 0 0 0 0 1 0 0 0 0
20	239851 6828 9 23758 0.310007019257 9.072355238869 258 0 0 0 0
21	246679 7887 9 23758 0.310007019257 9.072355238869 259 7504 85233 21997618 1874339696578
22	254566 7602 9 23758 0.310007019257 9.072355238869 258 7504 7504 1936032 14527984128
23	262168 7856 9 23758 0.310007019257 9.072355238869 258 0 77729 19976353 1552741942337
24	270024 13894 12 23760 0.310007019257 9.072355238869 506 40 44 20506 831172
25	283918 13894 12 23760 0.310007019257 9.072355238869 506 40 44 20506 831172
26	297812 26778 12 23760 0.310007019257 9.072355238869 1012 0 2 512 518
27	324590 13896 12 23760 0.310007019257 9.072355238869 506 40 44 20506 831172
28	338486 14084 12 23760 0.310007019257 9.072355238869 506 0 0.00070311008 0.013413483202 4.3191951847483e-006
29	352570 13896 12 23760 0.310007019257 9.072355238869 506 47 51 24048 1143050
30	366466 13896 14 23787 0.310915019257 9.073239238869 506 47 51 24048 1143050
31	380362 13896 14 23787 0.310915019257 9.073239238869 506 40 44 20506 831172
32	394258 120 16 1210 0.310915019257 5.312898722373 4 77501 1327997 2758993 2722742984707
33	394378 100 16 1210 0.310915019257 5.312898722373 4 0 0 0 0
34	394478 7893 16 23789 0.310915019257 9.073239238869 259 85006 85264 22049942 1877221307324
35	402371 54 16 29 0.310915019257 0.312707019257 2 7504 7504 15008 112620032
36	402425 13642 16 23789 0.310915019257 9.073239238869 515 0 1 1 1
37	416067 7607 16 23789 0.310915019257 9.073239238869 258 7503 7504 1936031 14527969121
38	423674 7865 16 23789 0.310915019257 9.073239238869 258 77502 77760 20028905 1554873666933
39	431539 13871 18 23716 0.310915019257 9.070062203558 505 40 44 20456 828762
40	445410 13871 18 23716 0.310915019257 9.070062203558 505 40 44 20456 828762
41	459281 26730 18 23716 0.310915019257 9.070062203558 1010 0 3 521 541
42	486011 13869 18 23716 0.310915019257 9.070062203558 505 40 44 20456 828762
43	499880 14181 18 23716 0.310915019257 9.070062203558 505 0 0.000776593034 0.016370975428 5.4653823190938e-006
44	514061 13869 18 23716 0.310915019257 9.070062203558 505 47 51 23991 1139891
[...]
406	2125277 143 682 3677 3.688334168279 7.659765435713 4 1.761635242189 2.6261 8.698935554689 19.334012147768
407	2125420 118 682 3677 3.688334168279 7.659765435713 4 1072 2144 5896 9480768
408	2125538 142 682 3677 3.688334168279 7.659765435713 4 4294967295 4294967295 17179869180 7.3786976260478e+019
409	2125680 106 682 3677 3.688334168279 7.659765435713 4 0 0 0 0
410	2125786 133 759 2473 3.905742695395 7.278505696829 5 0 0 0 0
411	2125919 187 759 2473 3.905742695395 7.278505696829 6 7504 984167 4928339 4842979729461
412	2126106 148 759 2473 3.905742695395 7.278505696829 5 7504 7504 37520 281550080
413	2126254 153 759 2473 3.905742695395 7.278505696829 5 0 976663 3906652 3815482462276
414	2126407 189 766 2506 3.906650695395 7.279397696829 6 983940 983945 5903650 5808847220438
415	2126596 58 766 779 3.906650695395 3.908442695395 2 7504 7504 15008 112620032
416	2126654 240 766 2506 3.906650695395 7.279397696829 9 0 1 1 1
417	2126894 148 766 2506 3.906650695395 7.279397696829 5 7503 7504 37519 281535073
418	2127042 158 766 2506 3.906650695395 7.279397696829 5 976436 976441 4882191 4767157792111
419	2127200 158 772 2537 3.907558695395 7.280273696829 5 976662 976663 4883314 4769351124520
420	2127358 158 772 2537 3.907558695395 7.280273696829 5 976436 976441 4882191 4767157792111
421	2127516 148 772 2537 3.907558695395 7.280273696829 5 7503 7504 37519 281535073
422	2127664 214 772 2537 3.907558695395 7.280273696829 8 0 2 5 7
423	2127878 127 779 2506 3.908442695395 7.279397696829 4 976436 976439 3905750 3813720765630
424	2128005 127 779 2506 3.908442695395 7.279397696829 4 976663 976663 3906652 3815482462276
425	2128132 26 779 779 3.908442695395 3.908442695395 1 0 0 0 0
426	2128158 29 779 779 3.908442695395 3.908442695395 1 1072 1072 1072 1149184
427	2128187 35 779 779 3.908442695395 3.908442695395 1 4294967295 4294967295 4294967295 1.844674406512e+019
428	2128222 107 779 2506 3.908442695395 7.279397696829 4 0 0 0 0
429	2128329 132 789 2537 3.909318695395 7.280273696829 4 0.00176 0.001768 0.007048 1.2418624e-005
430	2128461 145 789 2537 3.909318695395 7.280273696829 4 0.00022 0.000729320313 0.001942757813 1.0879527478607e-006
431	2128606 147 789 2537 3.909318695395 7.280273696829 4 0.440226761719 0.65647 2.174247230469 1.2078773340491
432	2128753 144 789 2537 3.909318695395 7.280273696829 4 1.761636367189 2.6261 8.698931679689 19.333995987745
433	2128897 119 789 2537 3.909318695395 7.280273696829 4 1072 2144 5896 9480768
434	2129016 143 789 2537 3.909318695395 7.280273696829 4 4294967295 4294967295 17179869180 7.3786976260478e+019
435	2129159 107 789 2537 3.909318695395 7.280273696829 4 0 0 0 0
436	2129266 81 1047 5871 5.000976592303 8.080324716941 3 0 0 0 0
437	2129347 129 1047 5871 5.000976592303 8.080324716941 4 7504 1257976 3781432 4747567159744
438	2129476 90 1047 5871 5.000976592303 8.080324716941 3 7504 7504 22512 168930048
439	2129566 93 1047 5871 5.000976592303 8.080324716941 3 0 1250472 2500944 3127360445568
440	2129659 196 1050 5873 5.000976592303 8.080324716941 7 40 44 290 12034
441	2129855 196 1050 5873 5.000976592303 8.080324716941 7 40 44 290 12034
442	2130051 378 1050 5873 5.000976592303 8.080324716941 14 0 1 7 7
443	2130429 196 1050 5873 5.000976592303 8.080324716941 7 40 44 290 12034
444	2130625 189 1050 5873 5.000976592303 8.080324716941 7 0 0 0 0
445	2130814 196 1050 5873 5.000976592303 8.080324716941 7 47 51 339 16437
446	2131010 196 1052 5886 5.001884592303 8.081208716941 7 47 51 339 16437
447	2131206 196 1052 5886 5.001884592303 8.081208716941 7 40 44 290 12034
448	2131402 132 1054 5888 5.001884592303 8.081208716941 4 1257749 1257751 5030998 6327735219004
449	2131534 60 1054 1067 5.001884592303 5.003676592303 2 7504 7504 15008 112620032
450	2131594 135 1054 5888 5.001884592303 8.081208716941 5 0 1 1 1
451	2131729 90 1054 5888 5.001884592303 8.081208716941 3 7503 7504 22511 168915041
452	2131819 99 1054 5888 5.001884592303 8.081208716941 3 1250245 1250247 3750738 4689345181550
453	2131918 196 1056 5891 5.001884592303 8.081208716941 7 40 44 292 12198
454	2132114 196 1056 5891 5.001884592303 8.081208716941 7 40 44 292 12198
455	2132310 378 1056 5891 5.001884592303 8.081208716941 14 0 1 7 7
456	2132688 196 1056 5891 5.001884592303 8.081208716941 7 40 44 292 12198
457	2132884 189 1056 5891 5.001884592303 8.081208716941 7 0 0 0 0
458	2133073 196 1056 5891 5.001884592303 8.081208716941 7 47 51 341 16629
459	2133269 196 1058 5896 5.002792592303 8.082084716941 7 47 51 341 16629
460	2133465 196 1058 5896 5.002792592303 8.082084716941 7 40 44 292 12198
461	2133661 99 1060 5898 5.002792592303 8.082084716941 3 1250471 1250472 3751415 4691038167409
462	2133760 99 1060 5898 5.002792592303 8.082084716941 3 1250245 1250247 3750738 4689345181550
463	2133859 90 1060 5898 5.002792592303 8.082084716941 3 7503 7504 22511 168915041
464	2133949 108 1060 5898 5.002792592303 8.082084716941 4 0 1 2 2
465	2134057 66 1067 5888 5.003676592303 8.081208716941 2 1250245 1250246 2500491 3126227620541
466	2134123 66 1067 5888 5.003676592303 8.081208716941 2 1250472 1250472 2500944 3127360445568
467	2134189 27 1067 1067 5.003676592303 5.003676592303 1 0 0 0 0
468	2134216 30 1067 1067 5.003676592303 5.003676592303 1 1072 1072 1072 1149184
469	2134246 36 1067 1067 5.003676592303 5.003676592303 1 4294967295 4294967295 4294967295 1.844674406512e+019
470	2134282 54 1067 5888 5.003676592303 8.081208716941 2 0 0 0 0
471	2134336 66 1077 5898 5.004552592303 8.082084716941 2 0.00176 0.00176 0.00352 6.1952e-006
472	2134402 68 1077 5898 5.004552592303 8.082084716941 2 0.00022 0.0004125 0.0006325 2.1855625e-007
473	2134470 69 1077 5898 5.004552592303 8.082084716941 2 0.57460375 0.65647 1.23107375 0.76112233041406
474	2134539 67 1077 5898 5.004552592303 8.082084716941 2 2.2988275 2.6261 4.9249275 12.181009084756
475	2134606 60 1077 5898 5.004552592303 8.082084716941 2 1072 1072 2144 2298368
476	2134666 72 1077 5898 5.004552592303 8.082084716941 2 4294967295 4294967295 8589934590 3.6893488130239e+019
477	2134738 54 1077 5898 5.004552592303 8.082084716941 2 0 0 0 0
478	2134792 81 1109 7145 5.148869289224 8.241279335917 3 0 0 0 0
479	2134873 129 1109 7145 5.148869289224 8.241279335917 4 7504 1294949 3892351 5030735047819
480	2135002 90 1109 7145 5.148869289224 8.241279335917 3 7504 7504 22512 168930048
481	2135092 93 1109 7145 5.148869289224 8.241279335917 3 0 1287445 2574890 3315029256050
482	2135185 195 1112 7147 5.148869289224 8.241279335917 7 40 44 290 12034
483	2135380 195 1112 7147 5.148869289224 8.241279335917 7 40 44 290 12034
484	2135575 376 1112 7147 5.148869289224 8.241279335917 14 0 1 7 7
485	2135951 195 1112 7147 5.148869289224 8.241279335917 7 40 44 290 12034
486	2136146 188 1112 7147 5.148869289224 8.241279335917 7 0 0 0 0
487	2136334 195 1112 7147 5.148869289224 8.241279335917 7 47 51 339 16437
488	2136529 195 1114 7153 5.149777289224 8.242163335917 7 47 51 339 16437
489	2136724 195 1114 7153 5.149777289224 8.242163335917 7 40 44 290 12034
490	2136919 132 1116 7155 5.149777289224 8.242163335917 4 1294722 1294724 5178890 6705225408028
491	2137051 60 1116 1129 5.149777289224 5.151569289224 2 7504 7504 15008 112620032
492	2137111 135 1116 7155 5.149777289224 8.242163335917 5 0 1 1 1
493	2137246 90 1116 7155 5.149777289224 8.242163335917 3 7503 7504 22511 168915041
494	2137336 99 1116 7155 5.149777289224 8.242163335917 3 1287218 1287220 3861657 4970798261885
495	2137435 195 1118 7158 5.149777289224 8.242163335917 7 40 44 292 12198
496	2137630 195 1118 7158 5.149777289224 8.242163335917 7 40 44 292 12198
497	2137825 376 1118 7158 5.149777289224 8.242163335917 14 0 1 7 7
498	2138201 195 1118 7158 5.149777289224 8.242163335917 7 40 44 292 12198
499	2138396 188 1118 7158 5.149777289224 8.242163335917 7 0 0 0 0
500	2138584 195 1118 7158 5.149777289224 8.242163335917 7 47 51 341 16629
501	2138779 195 1120 7171 5.150685289224 8.243039335917 7 47 51 341 16629
502	2138974 195 1120 7171 5.150685289224 8.243039335917 7 40 44 292 12198
503	2139169 99 1122 7173 5.150685289224 8.243039335917 3 1287444 1287445 3862334 4972541309186
504	2139268 99 1122 7173 5.150685289224 8.243039335917 3 1287218 1287220 3861657 4970798261885
505	2139367 90 1122 7173 5.150685289224 8.243039335917 3 7503 7504 22511 168915041
506	2139457 108 1122 7173 5.150685289224 8.243039335917 4 0 1 2 2
507	2139565 66 1129 7155 5.151569289224 8.242163335917 2 1287218 1287219 2574437 3313862933485
508	2139631 66 1129 7155 5.151569289224 8.242163335917 2 1287445 1287445 2574890 3315029256050
509	2139697 27 1129 1129 5.151569289224 5.151569289224 1 0 0 0 0
510	2139724 30 1129 1129 5.151569289224 5.151569289224 1 1072 1072 1072 1149184
511	2139754 36 1129 1129 5.151569289224 5.151569289224 1 4294967295 4294967295 4294967295 1.844674406512e+019
512	2139790 54 1129 7155 5.151569289224 8.242163335917 2 0 0 0 0
513	2139844 66 1139 7173 5.152445289224 8.243039335917 2 0.00176 0.00176 0.00352 6.1952e-006
514	2139910 68 1139 7173 5.152445289224 8.243039335917 2 0.00022 0.0004125 0.0006325 2.1855625e-007
515	2139978 69 1139 7173 5.152445289224 8.243039335917 2 0.57460375 0.65647 1.23107375 0.76112233041406
516	2140047 67 1139 7173 5.152445289224 8.243039335917 2 2.2988275 2.6261 4.9249275 12.181009084756
517	2140114 60 1139 7173 5.152445289224 8.243039335917 2 1072 1072 2144 2298368
518	2140174 72 1139 7173 5.152445289224 8.243039335917 2 4294967295 4294967295 8589934590 3.6893488130239e+019
519	2140246 54 1139 7173 5.152445289224 8.243039335917 2 0 0 0 0
520	2140300 107 1141 3694 5.156971065401 7.670334913541 4 0 0 0 0
521	2140407 161 1141 3694 5.156971065401 7.670334913541 5 7504 1296974 5195400 6728622536720
522	2140568 119 1141 3694 5.156971065401 7.670334913541 4 7504 7504 30016 225240064
523	2140687 125 1141 3694 5.156971065401 7.670334913541 4 0 1289470 3868410 4988198642700
524	2140812 99 1148 1364 5.157879065401 5.994208299081 3 1289242 1498325 4165832 5806737150414
525	2140911 81 1148 1364 5.157879065401 5.994208299081 3 0 0 0 0
526	2140992 164 1148 3700 5.157879065401 7.671218913541 5 1296747 1296751 6483742 8407782064528
527	2141156 60 1148 1161 5.157879065401 5.159671065401 2 7504 7504 15008 112620032
528	2141216 187 1148 3700 5.157879065401 7.671218913541 7 0 1 1 1
529	2141403 119 1148 3700 5.157879065401 7.671218913541 4 7503 7504 30015 225225057
530	2141522 131 1148 3700 5.157879065401 7.671218913541 4 1289243 1289247 5156980 6648610680110
531	2141653 131 1154 3707 5.158787065401 7.672094913541 4 1289469 1289470 5157879 6650928944661
532	2141784 131 1154 3707 5.158787065401 7.672094913541 4 1289243 1289247 5156980 6648610680110
533	2141915 119 1154 3707 5.158787065401 7.672094913541 4 7503 7504 30015 225225057
534	2142034 160 1154 3707 5.158787065401 7.672094913541 6 0 2 4 6
535	2142194 98 1161 3700 5.159671065401 7.671218913541 3 1289243 1289246 3867733 4986452853101
536	2142292 98 1161 3700 5.159671065401 7.671218913541 3 1289470 1289470 3868410 4988198642700
537	2142390 27 1161 1161 5.159671065401 5.159671065401 1 0 0 0 0
538	2142417 30 1161 1161 5.159671065401 5.159671065401 1 1072 1072 1072 1149184
539	2142447 36 1161 1161 5.159671065401 5.159671065401 1 4294967295 4294967295 4294967295 1.844674406512e+019
540	2142483 80 1161 3700 5.159671065401 7.671218913541 3 0 0 0 0
541	2142563 99 1171 3707 5.160547065401 7.672094913541 3 0.00176 0.001768 0.005288 9.321024e-006
542	2142662 105 1171 3707 5.160547065401 7.672094913541 3 0.00022 0.0005818125 0.0012153125 5.5788803515625e-007
543	2142767 107 1171 3707 5.160547065401 7.672094913541 3 0.50294746875 0.65647 1.73402221875 1.0140796359446
544	2142874 104 1171 3707 5.160547065401 7.672094913541 3 2.0123716875 2.6261 6.9373041875 16.230671881708
545	2142978 89 1171 3707 5.160547065401 7.672094913541 3 1072 2144 4824 8331584
546	2143067 107 1171 3707 5.160547065401 7.672094913541 3 4294967295 4294967295 12884901885 5.5340232195359e+019
547	2143174 80 1171 3707 5.160547065401 7.672094913541 3 0 0 0 0
548	2143254 81 1203 5286 5.311990722373 8.010437330241 3 0 0 0 0
549	2143335 129 1203 5286 5.311990722373 8.010437330241 4 7504 1335729 4014691 5352572194339
550	2143464 90 1203 5286 5.311990722373 8.010437330241 3 7504 7504 22512 168930048
551	2143554 93 1203 5286 5.311990722373 8.010437330241 3 0 1328225 2656450 3528363301250
552	2143647 196 1206 5288 5.311990722373 8.010437330241 7 40 44 290 12034
553	2143843 196 1206 5288 5.311990722373 8.010437330241 7 40 44 290 12034
554	2144039 378 1206 5288 5.311990722373 8.010437330241 14 0 1 7 7
555	2144417 196 1206 5288 5.311990722373 8.010437330241 7 40 44 290 12034
556	2144613 189 1206 5288 5.311990722373 8.010437330241 7 0 0 0 0
557	2144802 196 1206 5288 5.311990722373 8.010437330241 7 47 51 339 16437
558	2144998 196 1208 5301 5.312898722373 8.011321330241 7 47 51 339 16437
559	2145194 196 1208 5301 5.312898722373 8.011321330241 7 40 44 290 12034
560	2145390 132 1210 5303 5.312898722373 8.011321330241 4 1335502 1335504 5342010 7134267710028
561	2145522 60 1210 1223 5.312898722373 5.314690722373 2 7504 7504 15008 112620032
562	2145582 135 1210 5303 5.312898722373 8.011321330241 5 0 1 1 1
563	2145717 90 1210 5303 5.312898722373 8.011321330241 3 7503 7504 22511 168915041
564	2145807 99 1210 5303 5.312898722373 8.011321330241 3 1327998 1328000 3983997 5290744032005
565	2145906 196 1212 5306 5.312898722373 8.011321330241 7 40 44 292 12198
566	2146102 196 1212 5306 5.312898722373 8.011321330241 7 40 44 292 12198
567	2146298 378 1212 5306 5.312898722373 8.011321330241 14 0 1 7 7
568	2146676 196 1212 5306 5.312898722373 8.011321330241 7 40 44 292 12198
569	2146872 189 1212 5306 5.312898722373 8.011321330241 7 0 0 0 0
570	2147061 196 1212 5306 5.312898722373 8.011321330241 7 47 51 341 16629
571	2147257 196 1214 5311 5.313806722373 8.012197330241 7 47 51 341 16629
572	2147453 196 1214 5311 5.313806722373 8.012197330241 7 40 44 292 12198
573	2147649 99 1216 5313 5.313806722373 8.012197330241 3 1328224 1328225 3984674 5292542295426
574	2147748 99 1216 5313 5.313806722373 8.012197330241 3 1327998 1328000 3983997 5290744032005
575	2147847 90 1216 5313 5.313806722373 8.012197330241 3 7503 7504 22511 168915041
576	2147937 108 1216 5313 5.313806722373 8.012197330241 4 0 1 2 2
577	2148045 66 1223 5303 5.314690722373 8.011321330241 2 1327998 1327999 2655997 3527160032005
578	2148111 66 1223 5303 5.314690722373 8.011321330241 2 1328225 1328225 2656450 3528363301250
579	2148177 27 1223 1223 5.314690722373 5.314690722373 1 0 0 0 0
580	2148204 30 1223 1223 5.314690722373 5.314690722373 1 1072 1072 1072 1149184
581	2148234 36 1223 1223 5.314690722373 5.314690722373 1 4294967295 4294967295 4294967295 1.844674406512e+019
582	2148270 54 1223 5303 5.314690722373 8.011321330241 2 0 0 0 0
583	2148324 66 1233 5313 5.315566722373 8.012197330241 2 0.00176 0.00176 0.00352 6.1952e-006
584	2148390 68 1233 5313 5.315566722373 8.012197330241 2 0.00022 0.0004125 0.0006325 2.1855625e-007
585	2148458 69 1233 5313 5.315566722373 8.012197330241 2 0.57460375 0.65647 1.23107375 0.76112233041406
586	2148527 67 1233 5313 5.315566722373 8.012197330241 2 2.2988275 2.6261 4.9249275 12.181009084756
587	2148594 60 1233 5313 5.315566722373 8.012197330241 2 1072 1072 2144 2298368
588	2148654 72 1233 5313 5.315566722373 8.012197330241 2 4294967295 4294967295 8589934590 3.6893488130239e+019
589	2148726 54 1233 5313 5.315566722373 8.012197330241 2 0 0 0 0
590	2148780 108 1250 4249 5.513061033967 7.792102729576 4 0 0 0 0
591	2148888 162 1250 4249 5.513061033967 7.792102729576 5 7504 1385997 5551492 7684007046052
592	2149050 120 1250 4249 5.513061033967 7.792102729576 4 7504 7504 30016 225240064
593	2149170 126 1250 4249 5.513061033967 7.792102729576 4 0 1378493 4135479 5700728853147
594	2149296 165 1257 4255 5.513969033967 7.792986729576 5 1385770 1385774 6928857 9601811865305
595	2149461 60 1257 1270 5.513969033967 5.515761033967 2 7504 7504 15008 112620032
596	2149521 189 1257 4255 5.513969033967 7.792986729576 7 0 1 1 1
597	2149710 120 1257 4255 5.513969033967 7.792986729576 4 7503 7504 30015 225225057
598	2149830 132 1257 4255 5.513969033967 7.792986729576 4 1378266 1378270 5513072 7598490719306
599	2149962 132 1263 4262 5.514877033967 7.793862729576 4 1378492 1378493 5513971 7600969047211
600	2150094 132 1263 4262 5.514877033967 7.793862729576 4 1378266 1378270 5513072 7598490719306
601	2150226 120 1263 4262 5.514877033967 7.793862729576 4 7503 7504 30015 225225057
602	2150346 162 1263 4262 5.514877033967 7.793862729576 6 0 2 4 6
603	2150508 99 1270 4255 5.515761033967 7.792986729576 3 1378266 1378269 4134802 5698862526406
604	2150607 99 1270 4255 5.515761033967 7.792986729576 3 1378493 1378493 4135479 5700728853147
605	2150706 27 1270 1270 5.515761033967 5.515761033967 1 0 0 0 0
606	2150733 30 1270 1270 5.515761033967 5.515761033967 1 1072 1072 1072 1149184
607	2150763 36 1270 1270 5.515761033967 5.515761033967 1 4294967295 4294967295 4294967295 1.844674406512e+019
608	2150799 81 1270 4255 5.515761033967 7.792986729576 3 0 0 0 0
609	2150880 100 1280 4262 5.516637033967 7.793862729576 3 0.00176 0.001768 0.005288 9.321024e-006
610	2150980 106 1280 4262 5.516637033967 7.793862729576 3 0.00022 0.0005818125 0.0012153125 5.5788803515625e-007
611	2151086 108 1280 4262 5.516637033967 7.793862729576 3 0.50294746875 0.65647 1.73402221875 1.0140796359446
612	2151194 105 1280 4262 5.516637033967 7.793862729576 3 2.0123716875 2.6261 6.9373041875 16.230671881708
613	2151299 90 1280 4262 5.516637033967 7.793862729576 3 1072 2144 4824 8331584
614	2151389 108 1280 4262 5.516637033967 7.793862729576 3 4294967295 4294967295 12884901885 5.5340232195359e+019
615	2151497 81 1280 4262 5.516637033967 7.793862729576 3 0 0 0 0
616	2151578 108 1357 2882 5.993300299081 7.431770688192 4 0 0 0 0
617	2151686 162 1357 2882 5.993300299081 7.431770688192 5 7504 1506057 6031732 9072887059012
618	2151848 120 1357 2882 5.993300299081 7.431770688192 4 7504 7504 30016 225240064
619	2151968 126 1357 2882 5.993300299081 7.431770688192 4 0 1498553 4495659 6736983281427
620	2152094 165 1364 2911 5.994208299081 7.432662688192 5 1505830 1505834 7529156 11337638014480
621	2152259 60 1364 1377 5.994208299081 5.996000299081 2 7504 7504 15008 112620032
622	2152319 189 1364 2911 5.994208299081 7.432662688192 7 0 1 1 1
623	2152508 120 1364 2911 5.994208299081 7.432662688192 4 7503 7504 30015 225225057
624	2152628 132 1364 2911 5.994208299081 7.432662688192 4 1498326 1498330 5993311 8979944185689
625	2152760 132 1370 2939 5.995116299081 7.433538688192 4 1498552 1498553 5994211 8982641378131
626	2152892 132 1370 2939 5.995116299081 7.433538688192 4 1498326 1498330 5993311 8979944185689
627	2153024 120 1370 2939 5.995116299081 7.433538688192 4 7503 7504 30015 225225057
628	2153144 162 1370 2939 5.995116299081 7.433538688192 6 0 2 4 6
629	2153306 99 1377 2911 5.996000299081 7.432662688192 3 1498326 1498328 4494981 6734951396789
630	2153405 99 1377 2911 5.996000299081 7.432662688192 3 1498553 1498553 4495659 6736983281427
631	2153504 27 1377 1377 5.996000299081 5.996000299081 1 0 0 0 0
632	2153531 30 1377 1377 5.996000299081 5.996000299081 1 1072 1072 1072 1149184
633	2153561 36 1377 1377 5.996000299081 5.996000299081 1 4294967295 4294967295 4294967295 1.844674406512e+019
634	2153597 81 1377 2911 5.996000299081 7.432662688192 3 0 0 0 0
635	2153678 100 1387 2939 5.996876299081 7.433538688192 3 0.00176 0.001768 0.005288 9.321024e-006
636	2153778 106 1387 2939 5.996876299081 7.433538688192 3 0.00022 0.0005819375 0.0012144375 5.5720750390625e-007
637	2153884 108 1387 2939 5.996876299081 7.433538688192 3 0.50294771875 0.65647 1.73402146875 1.0140787382099
638	2153992 105 1387 2939 5.996876299081 7.433538688192 3 2.0123728125 2.6261 6.9373003125 16.230653421245
639	2154097 90 1387 2939 5.996876299081 7.433538688192 3 1072 2144 4824 8331584
640	2154187 108 1387 2939 5.996876299081 7.433538688192 3 4294967295 4294967295 12884901885 5.5340232195359e+019
641	2154295 81 1387 2939 5.996876299081 7.433538688192 3 0 0 0 0

