version 2
run J_3-0-20220110-20:58:12-5608
attr configname J_3
attr datetime 20220110-20:58:12
attr experiment J_3
attr inifile omnetpp.ini
attr iterationvars ""
attr iterationvarsf ""
attr measurement ""
attr network scenario
attr processid 5608
attr repetition 0
attr replication #0
attr resultdir results
attr runnumber 0
attr seedset 0
param **.client3.app[0].join 0.0
param **.ppp[*].ppp.queue.typename "\"DropTailQueue\""
param **.tcp.typename "\"Tcp\""
param **.tcp.nagleEnabled false
param **.cli*.app[*].nPar 5
param **.cli*.app[*].fPar 0
param **.numApps 1
param **.client0.app[*].typename "\"Node\""
param **.client0.app[0].localPort 1000
param **.client0.app[0].localPortL 1234
param **.client0.app[0].connectAddress "\"\""
param **.client0.app[0].connectPort 1234
param **.client1.app[*].typename "\"Node\""
param **.client1.app[0].localPort 1001
param **.client1.app[0].localPortL 1234
param **.client1.app[0].connectAddress "\"\""
param **.client1.app[0].connectPort 1234
param **.client2.app[*].typename "\"Node\""
param **.client2.app[0].localPort 1002
param **.client2.app[0].localPortL 1234
param **.client2.app[0].connectAddress "\"\""
param **.client2.app[0].connectPort 1234
param **.client3.app[*].typename "\"Node\""
param **.client3.app[0].localPort 1003
param **.client3.app[0].localPortL 1234
param **.client3.app[0].connectAddress "\"\""
param **.client3.app[0].connectPort 1234
param **.client4.app[*].typename "\"Node\""
param **.client4.app[0].localPort 1004
param **.client4.app[0].localPortL 1234
param **.client4.app[0].connectAddress "\"\""
param **.client4.app[0].connectPort 1234
param *.configurator.dumpAddresses true
param *.configurator.dumpTopology true
param *.configurator.dumpLinks true
param *.configurator.dumpRoutes true

vector 0 scenario.client0.ppp[0].ppp transmissionState:vector ETV
attr interpolationmode sample-hold
attr source transmissionStateChanged
attr title "tx state, vector"
vector 1 scenario.client0.ppp[1].ppp transmissionState:vector ETV
attr interpolationmode sample-hold
attr source transmissionStateChanged
attr title "tx state, vector"
vector 2 scenario.client0.ppp[2].ppp transmissionState:vector ETV
attr interpolationmode sample-hold
attr source transmissionStateChanged
attr title "tx state, vector"
vector 3 scenario.client0.ppp[3].ppp transmissionState:vector ETV
attr interpolationmode sample-hold
attr source transmissionStateChanged
attr title "tx state, vector"
vector 4 scenario.client1.ppp[0].ppp transmissionState:vector ETV
attr interpolationmode sample-hold
attr source transmissionStateChanged
attr title "tx state, vector"
vector 5 scenario.client1.ppp[1].ppp transmissionState:vector ETV
attr interpolationmode sample-hold
attr source transmissionStateChanged
attr title "tx state, vector"
vector 6 scenario.client1.ppp[2].ppp transmissionState:vector ETV
attr interpolationmode sample-hold
attr source transmissionStateChanged
attr title "tx state, vector"
vector 7 scenario.client1.ppp[3].ppp transmissionState:vector ETV
attr interpolationmode sample-hold
attr source transmissionStateChanged
attr title "tx state, vector"
vector 8 scenario.client2.ppp[0].ppp transmissionState:vector ETV
attr interpolationmode sample-hold
attr source transmissionStateChanged
attr title "tx state, vector"
vector 9 scenario.client2.ppp[1].ppp transmissionState:vector ETV
attr interpolationmode sample-hold
attr source transmissionStateChanged
attr title "tx state, vector"
vector 10 scenario.client2.ppp[2].ppp transmissionState:vector ETV
attr interpolationmode sample-hold
attr source transmissionStateChanged
attr title "tx state, vector"
vector 11 scenario.client2.ppp[3].ppp transmissionState:vector ETV
attr interpolationmode sample-hold
attr source transmissionStateChanged
attr title "tx state, vector"
vector 12 scenario.client3.ppp[0].ppp transmissionState:vector ETV
attr interpolationmode sample-hold
attr source transmissionStateChanged
attr title "tx state, vector"
vector 13 scenario.client3.ppp[1].ppp transmissionState:vector ETV
attr interpolationmode sample-hold
attr source transmissionStateChanged
attr title "tx state, vector"
vector 14 scenario.client3.ppp[2].ppp transmissionState:vector ETV
attr interpolationmode sample-hold
attr source transmissionStateChanged
attr title "tx state, vector"
vector 15 scenario.client3.ppp[3].ppp transmissionState:vector ETV
attr interpolationmode sample-hold
attr source transmissionStateChanged
attr title "tx state, vector"
vector 16 scenario.client4.ppp[0].ppp transmissionState:vector ETV
attr interpolationmode sample-hold
attr source transmissionStateChanged
attr title "tx state, vector"
vector 17 scenario.client4.ppp[1].ppp transmissionState:vector ETV
attr interpolationmode sample-hold
attr source transmissionStateChanged
attr title "tx state, vector"
vector 18 scenario.client4.ppp[2].ppp transmissionState:vector ETV
attr interpolationmode sample-hold
attr source transmissionStateChanged
attr title "tx state, vector"
vector 19 scenario.client4.ppp[3].ppp transmissionState:vector ETV
attr interpolationmode sample-hold
attr source transmissionStateChanged
attr title "tx state, vector"
vector 20 scenario.client3.tcp.conn-25 tcpRcvQueueBytes:vector ETV
attr interpolationmode sample-hold
vector 21 scenario.client3.tcp.conn-25 rcvAdv:vector ETV
attr interpolationmode sample-hold
vector 22 scenario.client3.tcp.conn-25 rcvWnd:vector ETV
attr interpolationmode sample-hold
vector 23 scenario.client3.tcp.conn-25 sndAck:vector ETV
attr interpolationmode sample-hold
vector 24 scenario.client3.ppp[2].ppp rcvdPkFromHl:vector(packetBytes) ETV
attr interpolationmode none
attr source packetReceivedFromUpper
attr title "packets received from higher layer, vector(packetBytes)"
vector 25 scenario.client3.ppp[2].ppp.queue packetPushed:vector(packetBytes) ETV
attr interpolationmode none
attr title "packet pushed, vector(packetBytes)"
vector 26 scenario.client3.ppp[2].ppp.queue queueLength:vector ETV
attr interpolationmode sample-hold
attr source "count(packetPushed) - count(packetPopped) - count(packetRemoved) - count(packetDropped)"
attr title "queue length, vector"
vector 27 scenario.client3.ppp[2].ppp.queue packetPopped:vector(packetBytes) ETV
attr interpolationmode none
attr title "packet popped, vector(packetBytes)"
vector 28 scenario.client3.ppp[2].ppp.queue queueingTime:vector ETV
attr interpolationmode none
attr source queueingTime(packetPopped)
attr title "queueing times, vector"
attr unit s
vector 29 scenario.client3.ppp[2].ppp txPk:vector(packetBytes) ETV
attr interpolationmode none
attr source packetSentToLower
attr title "packets transmitted, vector(packetBytes)"
vector 30 scenario.client2.ppp[2].ppp rxPkOk:vector(packetBytes) ETV
attr interpolationmode none
attr source rxPkOk
attr title "packets received OK, vector(packetBytes)"
vector 31 scenario.client2.ppp[2].ppp passedUpPk:vector(packetBytes) ETV
attr interpolationmode none
attr source packetSentToUpper
attr title "packets passed to higher layer, vector(packetBytes)"
vector 32 scenario.client2.tcp.conn-2 rcvSeq:vector ETV
attr interpolationmode sample-hold
vector 33 scenario.client2.tcp.conn-2 rcvAck:vector ETV
attr interpolationmode sample-hold
vector 34 scenario.client2.tcp.conn-26 rcvAdv:vector ETV
attr interpolationmode sample-hold
vector 35 scenario.client2.tcp.conn-26 sndWnd:vector ETV
attr interpolationmode sample-hold
vector 36 scenario.client2.tcp.conn-26 tcpRcvQueueBytes:vector ETV
attr interpolationmode sample-hold
vector 37 scenario.client2.tcp.conn-26 rcvWnd:vector ETV
attr interpolationmode sample-hold
vector 38 scenario.client2.tcp.conn-26 sndAck:vector ETV
attr interpolationmode sample-hold
vector 39 scenario.client2.ppp[2].ppp rcvdPkFromHl:vector(packetBytes) ETV
attr interpolationmode none
attr source packetReceivedFromUpper
attr title "packets received from higher layer, vector(packetBytes)"
vector 40 scenario.client2.ppp[2].ppp.queue packetPushed:vector(packetBytes) ETV
attr interpolationmode none
attr title "packet pushed, vector(packetBytes)"
vector 41 scenario.client2.ppp[2].ppp.queue queueLength:vector ETV
attr interpolationmode sample-hold
attr source "count(packetPushed) - count(packetPopped) - count(packetRemoved) - count(packetDropped)"
attr title "queue length, vector"
vector 42 scenario.client2.ppp[2].ppp.queue packetPopped:vector(packetBytes) ETV
attr interpolationmode none
attr title "packet popped, vector(packetBytes)"
vector 43 scenario.client2.ppp[2].ppp.queue queueingTime:vector ETV
attr interpolationmode none
attr source queueingTime(packetPopped)
attr title "queueing times, vector"
attr unit s
vector 44 scenario.client2.ppp[2].ppp txPk:vector(packetBytes) ETV
attr interpolationmode none
attr source packetSentToLower
attr title "packets transmitted, vector(packetBytes)"
vector 45 scenario.client3.ppp[2].ppp rxPkOk:vector(packetBytes) ETV
attr interpolationmode none
attr source rxPkOk
attr title "packets received OK, vector(packetBytes)"
vector 46 scenario.client3.ppp[2].ppp passedUpPk:vector(packetBytes) ETV
attr interpolationmode none
attr source packetSentToUpper
attr title "packets passed to higher layer, vector(packetBytes)"
vector 47 scenario.client3.tcp.conn-25 rcvSeq:vector ETV
attr interpolationmode sample-hold
vector 48 scenario.client3.tcp.conn-25 rcvAck:vector ETV
attr interpolationmode sample-hold
vector 49 scenario.client3.tcp.conn-25 sndWnd:vector ETV
attr interpolationmode sample-hold
vector 50 scenario.client3.tcp.conn-25 unacked:vector ETV
attr interpolationmode sample-hold
vector 51 scenario.client2.tcp.conn-26 rcvSeq:vector ETV
attr interpolationmode sample-hold
vector 52 scenario.client2.tcp.conn-26 rcvAck:vector ETV
attr interpolationmode sample-hold
vector 53 scenario.client2.tcp.conn-26 unacked:vector ETV
attr interpolationmode sample-hold
vector 54 scenario.client2.tcp.conn-26 cwnd:vector ETV
attr interpolationmode sample-hold
vector 55 scenario.client2.tcp.conn-26 ssthresh:vector ETV
attr interpolationmode sample-hold
vector 56 scenario.client2.tcp.conn-26 dupAcks:vector ETV
attr interpolationmode sample-hold
vector 57 scenario.client3.tcp.conn-25 rtt:vector ETV
attr interpolationmode sample-hold
vector 58 scenario.client3.tcp.conn-25 srtt:vector ETV
attr interpolationmode sample-hold
vector 59 scenario.client3.tcp.conn-25 rttvar:vector ETV
attr interpolationmode sample-hold
vector 60 scenario.client3.tcp.conn-25 rto:vector ETV
attr interpolationmode sample-hold
vector 61 scenario.client3.tcp.conn-25 cwnd:vector ETV
attr interpolationmode sample-hold
vector 62 scenario.client3.tcp.conn-25 ssthresh:vector ETV
attr interpolationmode sample-hold
vector 63 scenario.client3.tcp.conn-25 dupAcks:vector ETV
attr interpolationmode sample-hold
vector 64 scenario.client3.tcp.conn-27 tcpRcvQueueBytes:vector ETV
attr interpolationmode sample-hold
vector 65 scenario.client3.tcp.conn-27 rcvAdv:vector ETV
attr interpolationmode sample-hold
vector 66 scenario.client3.tcp.conn-27 rcvWnd:vector ETV
attr interpolationmode sample-hold
vector 67 scenario.client3.tcp.conn-27 sndAck:vector ETV
attr interpolationmode sample-hold
vector 68 scenario.client3.ppp[0].ppp rcvdPkFromHl:vector(packetBytes) ETV
attr interpolationmode none
attr source packetReceivedFromUpper
attr title "packets received from higher layer, vector(packetBytes)"
vector 69 scenario.client3.ppp[0].ppp.queue packetPushed:vector(packetBytes) ETV
attr interpolationmode none
attr title "packet pushed, vector(packetBytes)"
vector 70 scenario.client3.ppp[0].ppp.queue queueLength:vector ETV
attr interpolationmode sample-hold
attr source "count(packetPushed) - count(packetPopped) - count(packetRemoved) - count(packetDropped)"
attr title "queue length, vector"
vector 71 scenario.client3.ppp[0].ppp.queue packetPopped:vector(packetBytes) ETV
attr interpolationmode none
attr title "packet popped, vector(packetBytes)"
vector 72 scenario.client3.ppp[0].ppp.queue queueingTime:vector ETV
attr interpolationmode none
attr source queueingTime(packetPopped)
attr title "queueing times, vector"
attr unit s
vector 73 scenario.client3.ppp[0].ppp txPk:vector(packetBytes) ETV
attr interpolationmode none
attr source packetSentToLower
attr title "packets transmitted, vector(packetBytes)"
vector 74 scenario.client0.ppp[2].ppp rxPkOk:vector(packetBytes) ETV
attr interpolationmode none
attr source rxPkOk
attr title "packets received OK, vector(packetBytes)"
vector 75 scenario.client0.ppp[2].ppp passedUpPk:vector(packetBytes) ETV
attr interpolationmode none
attr source packetSentToUpper
attr title "packets passed to higher layer, vector(packetBytes)"
vector 76 scenario.client0.tcp.conn-0 rcvSeq:vector ETV
attr interpolationmode sample-hold
vector 77 scenario.client0.tcp.conn-0 rcvAck:vector ETV
attr interpolationmode sample-hold
vector 78 scenario.client0.tcp.conn-28 rcvAdv:vector ETV
attr interpolationmode sample-hold
vector 79 scenario.client0.tcp.conn-28 sndWnd:vector ETV
attr interpolationmode sample-hold
vector 80 scenario.client0.tcp.conn-28 tcpRcvQueueBytes:vector ETV
attr interpolationmode sample-hold
vector 81 scenario.client0.tcp.conn-28 rcvWnd:vector ETV
attr interpolationmode sample-hold
vector 82 scenario.client0.tcp.conn-28 sndAck:vector ETV
attr interpolationmode sample-hold
vector 83 scenario.client0.ppp[2].ppp rcvdPkFromHl:vector(packetBytes) ETV
attr interpolationmode none
attr source packetReceivedFromUpper
attr title "packets received from higher layer, vector(packetBytes)"
vector 84 scenario.client0.ppp[2].ppp.queue packetPushed:vector(packetBytes) ETV
attr interpolationmode none
attr title "packet pushed, vector(packetBytes)"
vector 85 scenario.client0.ppp[2].ppp.queue queueLength:vector ETV
attr interpolationmode sample-hold
attr source "count(packetPushed) - count(packetPopped) - count(packetRemoved) - count(packetDropped)"
attr title "queue length, vector"
vector 86 scenario.client0.ppp[2].ppp.queue packetPopped:vector(packetBytes) ETV
attr interpolationmode none
attr title "packet popped, vector(packetBytes)"
vector 87 scenario.client0.ppp[2].ppp.queue queueingTime:vector ETV
attr interpolationmode none
attr source queueingTime(packetPopped)
attr title "queueing times, vector"
attr unit s
vector 88 scenario.client0.ppp[2].ppp txPk:vector(packetBytes) ETV
attr interpolationmode none
attr source packetSentToLower
attr title "packets transmitted, vector(packetBytes)"
vector 89 scenario.client3.ppp[0].ppp rxPkOk:vector(packetBytes) ETV
attr interpolationmode none
attr source rxPkOk
attr title "packets received OK, vector(packetBytes)"
vector 90 scenario.client3.ppp[0].ppp passedUpPk:vector(packetBytes) ETV
attr interpolationmode none
attr source packetSentToUpper
attr title "packets passed to higher layer, vector(packetBytes)"
vector 91 scenario.client3.tcp.conn-27 rcvSeq:vector ETV
attr interpolationmode sample-hold
vector 92 scenario.client3.tcp.conn-27 rcvAck:vector ETV
attr interpolationmode sample-hold
vector 93 scenario.client3.tcp.conn-27 sndWnd:vector ETV
attr interpolationmode sample-hold
vector 94 scenario.client3.tcp.conn-27 unacked:vector ETV
attr interpolationmode sample-hold
vector 95 scenario.client0.tcp.conn-28 rcvSeq:vector ETV
attr interpolationmode sample-hold
vector 96 scenario.client0.tcp.conn-28 rcvAck:vector ETV
attr interpolationmode sample-hold
vector 97 scenario.client0.tcp.conn-28 unacked:vector ETV
attr interpolationmode sample-hold
vector 98 scenario.client0.tcp.conn-28 cwnd:vector ETV
attr interpolationmode sample-hold
vector 99 scenario.client0.tcp.conn-28 ssthresh:vector ETV
attr interpolationmode sample-hold
vector 100 scenario.client0.tcp.conn-28 dupAcks:vector ETV
attr interpolationmode sample-hold
vector 101 scenario.client3.tcp.conn-27 rtt:vector ETV
attr interpolationmode sample-hold
vector 102 scenario.client3.tcp.conn-27 srtt:vector ETV
attr interpolationmode sample-hold
vector 103 scenario.client3.tcp.conn-27 rttvar:vector ETV
attr interpolationmode sample-hold
vector 104 scenario.client3.tcp.conn-27 rto:vector ETV
attr interpolationmode sample-hold
vector 105 scenario.client3.tcp.conn-27 cwnd:vector ETV
attr interpolationmode sample-hold
vector 106 scenario.client3.tcp.conn-27 ssthresh:vector ETV
attr interpolationmode sample-hold
vector 107 scenario.client3.tcp.conn-27 dupAcks:vector ETV
attr interpolationmode sample-hold
vector 108 scenario.client0.tcp.conn-29 tcpRcvQueueBytes:vector ETV
attr interpolationmode sample-hold
vector 109 scenario.client0.tcp.conn-29 rcvAdv:vector ETV
attr interpolationmode sample-hold
vector 110 scenario.client0.tcp.conn-29 rcvWnd:vector ETV
attr interpolationmode sample-hold
vector 111 scenario.client0.tcp.conn-29 sndAck:vector ETV
attr interpolationmode sample-hold
vector 112 scenario.client3.tcp.conn-3 rcvSeq:vector ETV
attr interpolationmode sample-hold
vector 113 scenario.client3.tcp.conn-3 rcvAck:vector ETV
attr interpolationmode sample-hold
vector 114 scenario.client3.tcp.conn-30 rcvAdv:vector ETV
attr interpolationmode sample-hold
vector 115 scenario.client3.tcp.conn-30 sndWnd:vector ETV
attr interpolationmode sample-hold
vector 116 scenario.client3.tcp.conn-30 tcpRcvQueueBytes:vector ETV
attr interpolationmode sample-hold
vector 117 scenario.client3.tcp.conn-30 rcvWnd:vector ETV
attr interpolationmode sample-hold
vector 118 scenario.client3.tcp.conn-30 sndAck:vector ETV
attr interpolationmode sample-hold
vector 119 scenario.client0.tcp.conn-29 rcvSeq:vector ETV
attr interpolationmode sample-hold
vector 120 scenario.client0.tcp.conn-29 rcvAck:vector ETV
attr interpolationmode sample-hold
vector 121 scenario.client0.tcp.conn-29 sndWnd:vector ETV
attr interpolationmode sample-hold
vector 122 scenario.client0.tcp.conn-29 unacked:vector ETV
attr interpolationmode sample-hold
vector 123 scenario.client3.tcp.conn-30 rcvSeq:vector ETV
attr interpolationmode sample-hold
vector 124 scenario.client3.tcp.conn-30 rcvAck:vector ETV
attr interpolationmode sample-hold
vector 125 scenario.client3.tcp.conn-30 unacked:vector ETV
attr interpolationmode sample-hold
vector 126 scenario.client3.tcp.conn-30 cwnd:vector ETV
attr interpolationmode sample-hold
vector 127 scenario.client3.tcp.conn-30 ssthresh:vector ETV
attr interpolationmode sample-hold
vector 128 scenario.client3.tcp.conn-30 dupAcks:vector ETV
attr interpolationmode sample-hold
vector 129 scenario.client0.tcp.conn-29 rtt:vector ETV
attr interpolationmode sample-hold
vector 130 scenario.client0.tcp.conn-29 srtt:vector ETV
attr interpolationmode sample-hold
vector 131 scenario.client0.tcp.conn-29 rttvar:vector ETV
attr interpolationmode sample-hold
vector 132 scenario.client0.tcp.conn-29 rto:vector ETV
attr interpolationmode sample-hold
vector 133 scenario.client0.tcp.conn-29 cwnd:vector ETV
attr interpolationmode sample-hold
vector 134 scenario.client0.tcp.conn-29 ssthresh:vector ETV
attr interpolationmode sample-hold
vector 135 scenario.client0.tcp.conn-29 dupAcks:vector ETV
attr interpolationmode sample-hold
vector 136 scenario.client3.tcp.conn-31 tcpRcvQueueBytes:vector ETV
attr interpolationmode sample-hold
vector 137 scenario.client3.tcp.conn-31 rcvAdv:vector ETV
attr interpolationmode sample-hold
vector 138 scenario.client3.tcp.conn-31 rcvWnd:vector ETV
attr interpolationmode sample-hold
vector 139 scenario.client3.tcp.conn-31 sndAck:vector ETV
attr interpolationmode sample-hold
vector 140 scenario.client3.ppp[1].ppp rcvdPkFromHl:vector(packetBytes) ETV
attr interpolationmode none
attr source packetReceivedFromUpper
attr title "packets received from higher layer, vector(packetBytes)"
vector 141 scenario.client3.ppp[1].ppp.queue packetPushed:vector(packetBytes) ETV
attr interpolationmode none
attr title "packet pushed, vector(packetBytes)"
vector 142 scenario.client3.ppp[1].ppp.queue queueLength:vector ETV
attr interpolationmode sample-hold
attr source "count(packetPushed) - count(packetPopped) - count(packetRemoved) - count(packetDropped)"
attr title "queue length, vector"
vector 143 scenario.client3.ppp[1].ppp.queue packetPopped:vector(packetBytes) ETV
attr interpolationmode none
attr title "packet popped, vector(packetBytes)"
vector 144 scenario.client3.ppp[1].ppp.queue queueingTime:vector ETV
attr interpolationmode none
attr source queueingTime(packetPopped)
attr title "queueing times, vector"
attr unit s
vector 145 scenario.client3.ppp[1].ppp txPk:vector(packetBytes) ETV
attr interpolationmode none
attr source packetSentToLower
attr title "packets transmitted, vector(packetBytes)"
vector 146 scenario.client1.ppp[2].ppp rxPkOk:vector(packetBytes) ETV
attr interpolationmode none
attr source rxPkOk
attr title "packets received OK, vector(packetBytes)"
vector 147 scenario.client1.ppp[2].ppp passedUpPk:vector(packetBytes) ETV
attr interpolationmode none
attr source packetSentToUpper
attr title "packets passed to higher layer, vector(packetBytes)"
vector 148 scenario.client1.tcp.conn-1 rcvSeq:vector ETV
attr interpolationmode sample-hold
vector 149 scenario.client1.tcp.conn-1 rcvAck:vector ETV
attr interpolationmode sample-hold
vector 150 scenario.client1.tcp.conn-32 rcvAdv:vector ETV
attr interpolationmode sample-hold
vector 151 scenario.client1.tcp.conn-32 sndWnd:vector ETV
attr interpolationmode sample-hold
vector 152 scenario.client1.tcp.conn-32 tcpRcvQueueBytes:vector ETV
attr interpolationmode sample-hold
vector 153 scenario.client1.tcp.conn-32 rcvWnd:vector ETV
attr interpolationmode sample-hold
vector 154 scenario.client1.tcp.conn-32 sndAck:vector ETV
attr interpolationmode sample-hold
vector 155 scenario.client1.ppp[2].ppp rcvdPkFromHl:vector(packetBytes) ETV
attr interpolationmode none
attr source packetReceivedFromUpper
attr title "packets received from higher layer, vector(packetBytes)"
vector 156 scenario.client1.ppp[2].ppp.queue packetPushed:vector(packetBytes) ETV
attr interpolationmode none
attr title "packet pushed, vector(packetBytes)"
vector 157 scenario.client1.ppp[2].ppp.queue queueLength:vector ETV
attr interpolationmode sample-hold
attr source "count(packetPushed) - count(packetPopped) - count(packetRemoved) - count(packetDropped)"
attr title "queue length, vector"
vector 158 scenario.client1.ppp[2].ppp.queue packetPopped:vector(packetBytes) ETV
attr interpolationmode none
attr title "packet popped, vector(packetBytes)"
vector 159 scenario.client1.ppp[2].ppp.queue queueingTime:vector ETV
attr interpolationmode none
attr source queueingTime(packetPopped)
attr title "queueing times, vector"
attr unit s
vector 160 scenario.client1.ppp[2].ppp txPk:vector(packetBytes) ETV
attr interpolationmode none
attr source packetSentToLower
attr title "packets transmitted, vector(packetBytes)"
vector 161 scenario.client3.ppp[1].ppp rxPkOk:vector(packetBytes) ETV
attr interpolationmode none
attr source rxPkOk
attr title "packets received OK, vector(packetBytes)"
vector 162 scenario.client3.ppp[1].ppp passedUpPk:vector(packetBytes) ETV
attr interpolationmode none
attr source packetSentToUpper
attr title "packets passed to higher layer, vector(packetBytes)"
vector 163 scenario.client3.tcp.conn-31 rcvSeq:vector ETV
attr interpolationmode sample-hold
vector 164 scenario.client3.tcp.conn-31 rcvAck:vector ETV
attr interpolationmode sample-hold
vector 165 scenario.client3.tcp.conn-31 sndWnd:vector ETV
attr interpolationmode sample-hold
vector 166 scenario.client3.tcp.conn-31 unacked:vector ETV
attr interpolationmode sample-hold
vector 167 scenario.client1.tcp.conn-32 rcvSeq:vector ETV
attr interpolationmode sample-hold
vector 168 scenario.client1.tcp.conn-32 rcvAck:vector ETV
attr interpolationmode sample-hold
vector 169 scenario.client1.tcp.conn-32 unacked:vector ETV
attr interpolationmode sample-hold
vector 170 scenario.client1.tcp.conn-32 cwnd:vector ETV
attr interpolationmode sample-hold
vector 171 scenario.client1.tcp.conn-32 ssthresh:vector ETV
attr interpolationmode sample-hold
vector 172 scenario.client1.tcp.conn-32 dupAcks:vector ETV
attr interpolationmode sample-hold
vector 173 scenario.client3.tcp.conn-31 rtt:vector ETV
attr interpolationmode sample-hold
vector 174 scenario.client3.tcp.conn-31 srtt:vector ETV
attr interpolationmode sample-hold
vector 175 scenario.client3.tcp.conn-31 rttvar:vector ETV
attr interpolationmode sample-hold
vector 176 scenario.client3.tcp.conn-31 rto:vector ETV
attr interpolationmode sample-hold
vector 177 scenario.client3.tcp.conn-31 cwnd:vector ETV
attr interpolationmode sample-hold
vector 178 scenario.client3.tcp.conn-31 ssthresh:vector ETV
attr interpolationmode sample-hold
vector 179 scenario.client3.tcp.conn-31 dupAcks:vector ETV
attr interpolationmode sample-hold
vector 180 scenario.client2.tcp.conn-33 tcpRcvQueueBytes:vector ETV
attr interpolationmode sample-hold
vector 181 scenario.client2.tcp.conn-33 rcvAdv:vector ETV
attr interpolationmode sample-hold
vector 182 scenario.client2.tcp.conn-33 rcvWnd:vector ETV
attr interpolationmode sample-hold
vector 183 scenario.client2.tcp.conn-33 sndAck:vector ETV
attr interpolationmode sample-hold
vector 184 scenario.client3.tcp.conn-34 rcvAdv:vector ETV
attr interpolationmode sample-hold
vector 185 scenario.client3.tcp.conn-34 sndWnd:vector ETV
attr interpolationmode sample-hold
vector 186 scenario.client3.tcp.conn-34 tcpRcvQueueBytes:vector ETV
attr interpolationmode sample-hold
vector 187 scenario.client3.tcp.conn-34 rcvWnd:vector ETV
attr interpolationmode sample-hold
vector 188 scenario.client3.tcp.conn-34 sndAck:vector ETV
attr interpolationmode sample-hold
vector 189 scenario.client2.tcp.conn-33 rcvSeq:vector ETV
attr interpolationmode sample-hold
vector 190 scenario.client2.tcp.conn-33 rcvAck:vector ETV
attr interpolationmode sample-hold
vector 191 scenario.client2.tcp.conn-33 sndWnd:vector ETV
attr interpolationmode sample-hold
vector 192 scenario.client2.tcp.conn-33 unacked:vector ETV
attr interpolationmode sample-hold
vector 193 scenario.client3.tcp.conn-34 rcvSeq:vector ETV
attr interpolationmode sample-hold
vector 194 scenario.client3.tcp.conn-34 rcvAck:vector ETV
attr interpolationmode sample-hold
vector 195 scenario.client3.tcp.conn-34 unacked:vector ETV
attr interpolationmode sample-hold
vector 196 scenario.client3.tcp.conn-34 cwnd:vector ETV
attr interpolationmode sample-hold
vector 197 scenario.client3.tcp.conn-34 ssthresh:vector ETV
attr interpolationmode sample-hold
vector 198 scenario.client3.tcp.conn-34 dupAcks:vector ETV
attr interpolationmode sample-hold
vector 199 scenario.client2.tcp.conn-33 rtt:vector ETV
attr interpolationmode sample-hold
vector 200 scenario.client2.tcp.conn-33 srtt:vector ETV
attr interpolationmode sample-hold
vector 201 scenario.client2.tcp.conn-33 rttvar:vector ETV
attr interpolationmode sample-hold
vector 202 scenario.client2.tcp.conn-33 rto:vector ETV
attr interpolationmode sample-hold
vector 203 scenario.client2.tcp.conn-33 cwnd:vector ETV
attr interpolationmode sample-hold
vector 204 scenario.client2.tcp.conn-33 ssthresh:vector ETV
attr interpolationmode sample-hold
vector 205 scenario.client2.tcp.conn-33 dupAcks:vector ETV
attr interpolationmode sample-hold
vector 206 scenario.client1.tcp.conn-35 tcpRcvQueueBytes:vector ETV
attr interpolationmode sample-hold
vector 207 scenario.client1.tcp.conn-35 rcvAdv:vector ETV
attr interpolationmode sample-hold
vector 208 scenario.client1.tcp.conn-35 rcvWnd:vector ETV
attr interpolationmode sample-hold
vector 209 scenario.client1.tcp.conn-35 sndAck:vector ETV
attr interpolationmode sample-hold
vector 210 scenario.client3.tcp.conn-36 rcvAdv:vector ETV
attr interpolationmode sample-hold
vector 211 scenario.client3.tcp.conn-36 sndWnd:vector ETV
attr interpolationmode sample-hold
vector 212 scenario.client3.tcp.conn-36 tcpRcvQueueBytes:vector ETV
attr interpolationmode sample-hold
vector 213 scenario.client3.tcp.conn-36 rcvWnd:vector ETV
attr interpolationmode sample-hold
vector 214 scenario.client3.tcp.conn-36 sndAck:vector ETV
attr interpolationmode sample-hold
vector 215 scenario.client1.tcp.conn-35 rcvSeq:vector ETV
attr interpolationmode sample-hold
vector 216 scenario.client1.tcp.conn-35 rcvAck:vector ETV
attr interpolationmode sample-hold
vector 217 scenario.client1.tcp.conn-35 sndWnd:vector ETV
attr interpolationmode sample-hold
vector 218 scenario.client1.tcp.conn-35 unacked:vector ETV
attr interpolationmode sample-hold
vector 219 scenario.client3.tcp.conn-36 rcvSeq:vector ETV
attr interpolationmode sample-hold
vector 220 scenario.client3.tcp.conn-36 rcvAck:vector ETV
attr interpolationmode sample-hold
vector 221 scenario.client3.tcp.conn-36 unacked:vector ETV
attr interpolationmode sample-hold
vector 222 scenario.client3.tcp.conn-36 cwnd:vector ETV
attr interpolationmode sample-hold
vector 223 scenario.client3.tcp.conn-36 ssthresh:vector ETV
attr interpolationmode sample-hold
vector 224 scenario.client3.tcp.conn-36 dupAcks:vector ETV
attr interpolationmode sample-hold
vector 225 scenario.client1.tcp.conn-35 rtt:vector ETV
attr interpolationmode sample-hold
vector 226 scenario.client1.tcp.conn-35 srtt:vector ETV
attr interpolationmode sample-hold
vector 227 scenario.client1.tcp.conn-35 rttvar:vector ETV
attr interpolationmode sample-hold
vector 228 scenario.client1.tcp.conn-35 rto:vector ETV
attr interpolationmode sample-hold
vector 229 scenario.client1.tcp.conn-35 cwnd:vector ETV
attr interpolationmode sample-hold
vector 230 scenario.client1.tcp.conn-35 ssthresh:vector ETV
attr interpolationmode sample-hold
vector 231 scenario.client1.tcp.conn-35 dupAcks:vector ETV
attr interpolationmode sample-hold
vector 232 scenario.client2.tcp.conn-37 tcpRcvQueueBytes:vector ETV
attr interpolationmode sample-hold
vector 233 scenario.client2.tcp.conn-37 rcvAdv:vector ETV
attr interpolationmode sample-hold
vector 234 scenario.client2.tcp.conn-37 rcvWnd:vector ETV
attr interpolationmode sample-hold
vector 235 scenario.client2.tcp.conn-37 sndAck:vector ETV
attr interpolationmode sample-hold
vector 236 scenario.client2.ppp[1].ppp rcvdPkFromHl:vector(packetBytes) ETV
attr interpolationmode none
attr source packetReceivedFromUpper
attr title "packets received from higher layer, vector(packetBytes)"
vector 237 scenario.client2.ppp[1].ppp.queue packetPushed:vector(packetBytes) ETV
attr interpolationmode none
attr title "packet pushed, vector(packetBytes)"
vector 238 scenario.client2.ppp[1].ppp.queue queueLength:vector ETV
attr interpolationmode sample-hold
attr source "count(packetPushed) - count(packetPopped) - count(packetRemoved) - count(packetDropped)"
attr title "queue length, vector"
vector 239 scenario.client2.ppp[1].ppp.queue packetPopped:vector(packetBytes) ETV
attr interpolationmode none
attr title "packet popped, vector(packetBytes)"
vector 240 scenario.client2.ppp[1].ppp.queue queueingTime:vector ETV
attr interpolationmode none
attr source queueingTime(packetPopped)
attr title "queueing times, vector"
attr unit s
vector 241 scenario.client2.ppp[1].ppp txPk:vector(packetBytes) ETV
attr interpolationmode none
attr source packetSentToLower
attr title "packets transmitted, vector(packetBytes)"
vector 242 scenario.client1.ppp[1].ppp rxPkOk:vector(packetBytes) ETV
attr interpolationmode none
attr source rxPkOk
attr title "packets received OK, vector(packetBytes)"
vector 243 scenario.client1.ppp[1].ppp passedUpPk:vector(packetBytes) ETV
attr interpolationmode none
attr source packetSentToUpper
attr title "packets passed to higher layer, vector(packetBytes)"
vector 244 scenario.client1.tcp.conn-38 rcvAdv:vector ETV
attr interpolationmode sample-hold
vector 245 scenario.client1.tcp.conn-38 sndWnd:vector ETV
attr interpolationmode sample-hold
vector 246 scenario.client1.tcp.conn-38 tcpRcvQueueBytes:vector ETV
attr interpolationmode sample-hold
vector 247 scenario.client1.tcp.conn-38 rcvWnd:vector ETV
attr interpolationmode sample-hold
vector 248 scenario.client1.tcp.conn-38 sndAck:vector ETV
attr interpolationmode sample-hold
vector 249 scenario.client1.ppp[1].ppp rcvdPkFromHl:vector(packetBytes) ETV
attr interpolationmode none
attr source packetReceivedFromUpper
attr title "packets received from higher layer, vector(packetBytes)"
vector 250 scenario.client1.ppp[1].ppp.queue packetPushed:vector(packetBytes) ETV
attr interpolationmode none
attr title "packet pushed, vector(packetBytes)"
vector 251 scenario.client1.ppp[1].ppp.queue queueLength:vector ETV
attr interpolationmode sample-hold
attr source "count(packetPushed) - count(packetPopped) - count(packetRemoved) - count(packetDropped)"
attr title "queue length, vector"
vector 252 scenario.client1.ppp[1].ppp.queue packetPopped:vector(packetBytes) ETV
attr interpolationmode none
attr title "packet popped, vector(packetBytes)"
vector 253 scenario.client1.ppp[1].ppp.queue queueingTime:vector ETV
attr interpolationmode none
attr source queueingTime(packetPopped)
attr title "queueing times, vector"
attr unit s
vector 254 scenario.client1.ppp[1].ppp txPk:vector(packetBytes) ETV
attr interpolationmode none
attr source packetSentToLower
attr title "packets transmitted, vector(packetBytes)"
vector 255 scenario.client2.ppp[1].ppp rxPkOk:vector(packetBytes) ETV
attr interpolationmode none
attr source rxPkOk
attr title "packets received OK, vector(packetBytes)"
vector 256 scenario.client2.ppp[1].ppp passedUpPk:vector(packetBytes) ETV
attr interpolationmode none
attr source packetSentToUpper
attr title "packets passed to higher layer, vector(packetBytes)"
vector 257 scenario.client2.tcp.conn-37 rcvSeq:vector ETV
attr interpolationmode sample-hold
vector 258 scenario.client2.tcp.conn-37 rcvAck:vector ETV
attr interpolationmode sample-hold
vector 259 scenario.client2.tcp.conn-37 sndWnd:vector ETV
attr interpolationmode sample-hold
vector 260 scenario.client2.tcp.conn-37 unacked:vector ETV
attr interpolationmode sample-hold
vector 261 scenario.client1.tcp.conn-38 rcvSeq:vector ETV
attr interpolationmode sample-hold
vector 262 scenario.client1.tcp.conn-38 rcvAck:vector ETV
attr interpolationmode sample-hold
vector 263 scenario.client1.tcp.conn-38 unacked:vector ETV
attr interpolationmode sample-hold
vector 264 scenario.client1.tcp.conn-38 cwnd:vector ETV
attr interpolationmode sample-hold
vector 265 scenario.client1.tcp.conn-38 ssthresh:vector ETV
attr interpolationmode sample-hold
vector 266 scenario.client1.tcp.conn-38 dupAcks:vector ETV
attr interpolationmode sample-hold
vector 267 scenario.client2.tcp.conn-37 rtt:vector ETV
attr interpolationmode sample-hold
vector 268 scenario.client2.tcp.conn-37 srtt:vector ETV
attr interpolationmode sample-hold
vector 269 scenario.client2.tcp.conn-37 rttvar:vector ETV
attr interpolationmode sample-hold
vector 270 scenario.client2.tcp.conn-37 rto:vector ETV
attr interpolationmode sample-hold
vector 271 scenario.client2.tcp.conn-37 cwnd:vector ETV
attr interpolationmode sample-hold
vector 272 scenario.client2.tcp.conn-37 ssthresh:vector ETV
attr interpolationmode sample-hold
vector 273 scenario.client2.tcp.conn-37 dupAcks:vector ETV
attr interpolationmode sample-hold
vector 274 scenario.client1.tcp.conn-39 tcpRcvQueueBytes:vector ETV
attr interpolationmode sample-hold
vector 275 scenario.client1.tcp.conn-39 rcvAdv:vector ETV
attr interpolationmode sample-hold
vector 276 scenario.client1.tcp.conn-39 rcvWnd:vector ETV
attr interpolationmode sample-hold
vector 277 scenario.client1.tcp.conn-39 sndAck:vector ETV
attr interpolationmode sample-hold
vector 278 scenario.client1.ppp[0].ppp rcvdPkFromHl:vector(packetBytes) ETV
attr interpolationmode none
attr source packetReceivedFromUpper
attr title "packets received from higher layer, vector(packetBytes)"
vector 279 scenario.client1.ppp[0].ppp.queue packetPushed:vector(packetBytes) ETV
attr interpolationmode none
attr title "packet pushed, vector(packetBytes)"
vector 280 scenario.client1.ppp[0].ppp.queue queueLength:vector ETV
attr interpolationmode sample-hold
attr source "count(packetPushed) - count(packetPopped) - count(packetRemoved) - count(packetDropped)"
attr title "queue length, vector"
vector 281 scenario.client1.ppp[0].ppp.queue packetPopped:vector(packetBytes) ETV
attr interpolationmode none
attr title "packet popped, vector(packetBytes)"
vector 282 scenario.client1.ppp[0].ppp.queue queueingTime:vector ETV
attr interpolationmode none
attr source queueingTime(packetPopped)
attr title "queueing times, vector"
attr unit s
vector 283 scenario.client1.ppp[0].ppp txPk:vector(packetBytes) ETV
attr interpolationmode none
attr source packetSentToLower
attr title "packets transmitted, vector(packetBytes)"
vector 284 scenario.client0.ppp[0].ppp rxPkOk:vector(packetBytes) ETV
attr interpolationmode none
attr source rxPkOk
attr title "packets received OK, vector(packetBytes)"
vector 285 scenario.client0.ppp[0].ppp passedUpPk:vector(packetBytes) ETV
attr interpolationmode none
attr source packetSentToUpper
attr title "packets passed to higher layer, vector(packetBytes)"
vector 286 scenario.client0.tcp.conn-40 rcvAdv:vector ETV
attr interpolationmode sample-hold
vector 287 scenario.client0.tcp.conn-40 sndWnd:vector ETV
attr interpolationmode sample-hold
vector 288 scenario.client0.tcp.conn-40 tcpRcvQueueBytes:vector ETV
attr interpolationmode sample-hold
vector 289 scenario.client0.tcp.conn-40 rcvWnd:vector ETV
attr interpolationmode sample-hold
vector 290 scenario.client0.tcp.conn-40 sndAck:vector ETV
attr interpolationmode sample-hold
vector 291 scenario.client0.ppp[0].ppp rcvdPkFromHl:vector(packetBytes) ETV
attr interpolationmode none
attr source packetReceivedFromUpper
attr title "packets received from higher layer, vector(packetBytes)"
vector 292 scenario.client0.ppp[0].ppp.queue packetPushed:vector(packetBytes) ETV
attr interpolationmode none
attr title "packet pushed, vector(packetBytes)"
vector 293 scenario.client0.ppp[0].ppp.queue queueLength:vector ETV
attr interpolationmode sample-hold
attr source "count(packetPushed) - count(packetPopped) - count(packetRemoved) - count(packetDropped)"
attr title "queue length, vector"
vector 294 scenario.client0.ppp[0].ppp.queue packetPopped:vector(packetBytes) ETV
attr interpolationmode none
attr title "packet popped, vector(packetBytes)"
vector 295 scenario.client0.ppp[0].ppp.queue queueingTime:vector ETV
attr interpolationmode none
attr source queueingTime(packetPopped)
attr title "queueing times, vector"
attr unit s
vector 296 scenario.client0.ppp[0].ppp txPk:vector(packetBytes) ETV
attr interpolationmode none
attr source packetSentToLower
attr title "packets transmitted, vector(packetBytes)"
vector 297 scenario.client1.ppp[0].ppp rxPkOk:vector(packetBytes) ETV
attr interpolationmode none
attr source rxPkOk
attr title "packets received OK, vector(packetBytes)"
vector 298 scenario.client1.ppp[0].ppp passedUpPk:vector(packetBytes) ETV
attr interpolationmode none
attr source packetSentToUpper
attr title "packets passed to higher layer, vector(packetBytes)"
vector 299 scenario.client1.tcp.conn-39 rcvSeq:vector ETV
attr interpolationmode sample-hold
vector 300 scenario.client1.tcp.conn-39 rcvAck:vector ETV
attr interpolationmode sample-hold
vector 301 scenario.client1.tcp.conn-39 sndWnd:vector ETV
attr interpolationmode sample-hold
vector 302 scenario.client1.tcp.conn-39 unacked:vector ETV
attr interpolationmode sample-hold
vector 303 scenario.client0.tcp.conn-40 rcvSeq:vector ETV
attr interpolationmode sample-hold
vector 304 scenario.client0.tcp.conn-40 rcvAck:vector ETV
attr interpolationmode sample-hold
vector 305 scenario.client0.tcp.conn-40 unacked:vector ETV
attr interpolationmode sample-hold
vector 306 scenario.client0.tcp.conn-40 cwnd:vector ETV
attr interpolationmode sample-hold
vector 307 scenario.client0.tcp.conn-40 ssthresh:vector ETV
attr interpolationmode sample-hold
vector 308 scenario.client0.tcp.conn-40 dupAcks:vector ETV
attr interpolationmode sample-hold
vector 309 scenario.client1.tcp.conn-39 rtt:vector ETV
attr interpolationmode sample-hold
vector 310 scenario.client1.tcp.conn-39 srtt:vector ETV
attr interpolationmode sample-hold
vector 311 scenario.client1.tcp.conn-39 rttvar:vector ETV
attr interpolationmode sample-hold
vector 312 scenario.client1.tcp.conn-39 rto:vector ETV
attr interpolationmode sample-hold
vector 313 scenario.client1.tcp.conn-39 cwnd:vector ETV
attr interpolationmode sample-hold
vector 314 scenario.client1.tcp.conn-39 ssthresh:vector ETV
attr interpolationmode sample-hold
vector 315 scenario.client1.tcp.conn-39 dupAcks:vector ETV
attr interpolationmode sample-hold
vector 316 scenario.client0.tcp.conn-41 tcpRcvQueueBytes:vector ETV
attr interpolationmode sample-hold
vector 317 scenario.client0.tcp.conn-41 rcvAdv:vector ETV
attr interpolationmode sample-hold
vector 318 scenario.client0.tcp.conn-41 rcvWnd:vector ETV
attr interpolationmode sample-hold
vector 319 scenario.client0.tcp.conn-41 sndAck:vector ETV
attr interpolationmode sample-hold
vector 320 scenario.client0.ppp[1].ppp rcvdPkFromHl:vector(packetBytes) ETV
attr interpolationmode none
attr source packetReceivedFromUpper
attr title "packets received from higher layer, vector(packetBytes)"
vector 321 scenario.client0.ppp[1].ppp.queue packetPushed:vector(packetBytes) ETV
attr interpolationmode none
attr title "packet pushed, vector(packetBytes)"
vector 322 scenario.client0.ppp[1].ppp.queue queueLength:vector ETV
attr interpolationmode sample-hold
attr source "count(packetPushed) - count(packetPopped) - count(packetRemoved) - count(packetDropped)"
attr title "queue length, vector"
vector 323 scenario.client0.ppp[1].ppp.queue packetPopped:vector(packetBytes) ETV
attr interpolationmode none
attr title "packet popped, vector(packetBytes)"
vector 324 scenario.client0.ppp[1].ppp.queue queueingTime:vector ETV
attr interpolationmode none
attr source queueingTime(packetPopped)
attr title "queueing times, vector"
attr unit s
vector 325 scenario.client0.ppp[1].ppp txPk:vector(packetBytes) ETV
attr interpolationmode none
attr source packetSentToLower
attr title "packets transmitted, vector(packetBytes)"
vector 326 scenario.client2.ppp[0].ppp rxPkOk:vector(packetBytes) ETV
attr interpolationmode none
attr source rxPkOk
attr title "packets received OK, vector(packetBytes)"
vector 327 scenario.client2.ppp[0].ppp passedUpPk:vector(packetBytes) ETV
attr interpolationmode none
attr source packetSentToUpper
attr title "packets passed to higher layer, vector(packetBytes)"
vector 328 scenario.client2.tcp.conn-42 rcvAdv:vector ETV
attr interpolationmode sample-hold
vector 329 scenario.client2.tcp.conn-42 sndWnd:vector ETV
attr interpolationmode sample-hold
vector 330 scenario.client2.tcp.conn-42 tcpRcvQueueBytes:vector ETV
attr interpolationmode sample-hold
vector 331 scenario.client2.tcp.conn-42 rcvWnd:vector ETV
attr interpolationmode sample-hold
vector 332 scenario.client2.tcp.conn-42 sndAck:vector ETV
attr interpolationmode sample-hold
vector 333 scenario.client2.ppp[0].ppp rcvdPkFromHl:vector(packetBytes) ETV
attr interpolationmode none
attr source packetReceivedFromUpper
attr title "packets received from higher layer, vector(packetBytes)"
vector 334 scenario.client2.ppp[0].ppp.queue packetPushed:vector(packetBytes) ETV
attr interpolationmode none
attr title "packet pushed, vector(packetBytes)"
vector 335 scenario.client2.ppp[0].ppp.queue queueLength:vector ETV
attr interpolationmode sample-hold
attr source "count(packetPushed) - count(packetPopped) - count(packetRemoved) - count(packetDropped)"
attr title "queue length, vector"
vector 336 scenario.client2.ppp[0].ppp.queue packetPopped:vector(packetBytes) ETV
attr interpolationmode none
attr title "packet popped, vector(packetBytes)"
vector 337 scenario.client2.ppp[0].ppp.queue queueingTime:vector ETV
attr interpolationmode none
attr source queueingTime(packetPopped)
attr title "queueing times, vector"
attr unit s
vector 338 scenario.client2.ppp[0].ppp txPk:vector(packetBytes) ETV
attr interpolationmode none
attr source packetSentToLower
attr title "packets transmitted, vector(packetBytes)"
vector 339 scenario.client0.ppp[1].ppp rxPkOk:vector(packetBytes) ETV
attr interpolationmode none
attr source rxPkOk
attr title "packets received OK, vector(packetBytes)"
vector 340 scenario.client0.ppp[1].ppp passedUpPk:vector(packetBytes) ETV
attr interpolationmode none
attr source packetSentToUpper
attr title "packets passed to higher layer, vector(packetBytes)"
vector 341 scenario.client0.tcp.conn-41 rcvSeq:vector ETV
attr interpolationmode sample-hold
vector 342 scenario.client0.tcp.conn-41 rcvAck:vector ETV
attr interpolationmode sample-hold
vector 343 scenario.client0.tcp.conn-41 sndWnd:vector ETV
attr interpolationmode sample-hold
vector 344 scenario.client0.tcp.conn-41 unacked:vector ETV
attr interpolationmode sample-hold
vector 345 scenario.client2.tcp.conn-42 rcvSeq:vector ETV
attr interpolationmode sample-hold
vector 346 scenario.client2.tcp.conn-42 rcvAck:vector ETV
attr interpolationmode sample-hold
vector 347 scenario.client2.tcp.conn-42 unacked:vector ETV
attr interpolationmode sample-hold
vector 348 scenario.client2.tcp.conn-42 cwnd:vector ETV
attr interpolationmode sample-hold
vector 349 scenario.client2.tcp.conn-42 ssthresh:vector ETV
attr interpolationmode sample-hold
vector 350 scenario.client2.tcp.conn-42 dupAcks:vector ETV
attr interpolationmode sample-hold
vector 351 scenario.client0.tcp.conn-41 rtt:vector ETV
attr interpolationmode sample-hold
vector 352 scenario.client0.tcp.conn-41 srtt:vector ETV
attr interpolationmode sample-hold
vector 353 scenario.client0.tcp.conn-41 rttvar:vector ETV
attr interpolationmode sample-hold
vector 354 scenario.client0.tcp.conn-41 rto:vector ETV
attr interpolationmode sample-hold
vector 355 scenario.client0.tcp.conn-41 cwnd:vector ETV
attr interpolationmode sample-hold
vector 356 scenario.client0.tcp.conn-41 ssthresh:vector ETV
attr interpolationmode sample-hold
vector 357 scenario.client0.tcp.conn-41 dupAcks:vector ETV
attr interpolationmode sample-hold
vector 358 scenario.client2.tcp.conn-43 tcpRcvQueueBytes:vector ETV
attr interpolationmode sample-hold
vector 359 scenario.client2.tcp.conn-43 rcvAdv:vector ETV
attr interpolationmode sample-hold
vector 360 scenario.client2.tcp.conn-43 rcvWnd:vector ETV
attr interpolationmode sample-hold
vector 361 scenario.client2.tcp.conn-43 sndAck:vector ETV
attr interpolationmode sample-hold
vector 362 scenario.client0.tcp.conn-44 rcvAdv:vector ETV
attr interpolationmode sample-hold
vector 363 scenario.client0.tcp.conn-44 sndWnd:vector ETV
attr interpolationmode sample-hold
vector 364 scenario.client0.tcp.conn-44 tcpRcvQueueBytes:vector ETV
attr interpolationmode sample-hold
vector 365 scenario.client0.tcp.conn-44 rcvWnd:vector ETV
attr interpolationmode sample-hold
vector 366 scenario.client0.tcp.conn-44 sndAck:vector ETV
attr interpolationmode sample-hold
vector 367 scenario.client2.tcp.conn-43 rcvSeq:vector ETV
attr interpolationmode sample-hold
vector 368 scenario.client2.tcp.conn-43 rcvAck:vector ETV
attr interpolationmode sample-hold
vector 369 scenario.client2.tcp.conn-43 sndWnd:vector ETV
attr interpolationmode sample-hold
vector 370 scenario.client2.tcp.conn-43 unacked:vector ETV
attr interpolationmode sample-hold
vector 371 scenario.client0.tcp.conn-44 rcvSeq:vector ETV
attr interpolationmode sample-hold
vector 372 scenario.client0.tcp.conn-44 rcvAck:vector ETV
attr interpolationmode sample-hold
vector 373 scenario.client0.tcp.conn-44 unacked:vector ETV
attr interpolationmode sample-hold
vector 374 scenario.client0.tcp.conn-44 cwnd:vector ETV
attr interpolationmode sample-hold
vector 375 scenario.client0.tcp.conn-44 ssthresh:vector ETV
attr interpolationmode sample-hold
vector 376 scenario.client0.tcp.conn-44 dupAcks:vector ETV
attr interpolationmode sample-hold
vector 377 scenario.client2.tcp.conn-43 rtt:vector ETV
attr interpolationmode sample-hold
vector 378 scenario.client2.tcp.conn-43 srtt:vector ETV
attr interpolationmode sample-hold
vector 379 scenario.client2.tcp.conn-43 rttvar:vector ETV
attr interpolationmode sample-hold
vector 380 scenario.client2.tcp.conn-43 rto:vector ETV
attr interpolationmode sample-hold
vector 381 scenario.client2.tcp.conn-43 cwnd:vector ETV
attr interpolationmode sample-hold
vector 382 scenario.client2.tcp.conn-43 ssthresh:vector ETV
attr interpolationmode sample-hold
vector 383 scenario.client2.tcp.conn-43 dupAcks:vector ETV
attr interpolationmode sample-hold
vector 384 scenario.client1.tcp.conn-45 tcpRcvQueueBytes:vector ETV
attr interpolationmode sample-hold
vector 385 scenario.client1.tcp.conn-45 rcvAdv:vector ETV
attr interpolationmode sample-hold
vector 386 scenario.client1.tcp.conn-45 rcvWnd:vector ETV
attr interpolationmode sample-hold
vector 387 scenario.client1.tcp.conn-45 sndAck:vector ETV
attr interpolationmode sample-hold
vector 388 scenario.client2.tcp.conn-46 rcvAdv:vector ETV
attr interpolationmode sample-hold
vector 389 scenario.client2.tcp.conn-46 sndWnd:vector ETV
attr interpolationmode sample-hold
vector 390 scenario.client2.tcp.conn-46 tcpRcvQueueBytes:vector ETV
attr interpolationmode sample-hold
vector 391 scenario.client2.tcp.conn-46 rcvWnd:vector ETV
attr interpolationmode sample-hold
vector 392 scenario.client2.tcp.conn-46 sndAck:vector ETV
attr interpolationmode sample-hold
vector 393 scenario.client1.tcp.conn-45 rcvSeq:vector ETV
attr interpolationmode sample-hold
vector 394 scenario.client1.tcp.conn-45 rcvAck:vector ETV
attr interpolationmode sample-hold
vector 395 scenario.client1.tcp.conn-45 sndWnd:vector ETV
attr interpolationmode sample-hold
vector 396 scenario.client1.tcp.conn-45 unacked:vector ETV
attr interpolationmode sample-hold
vector 397 scenario.client2.tcp.conn-46 rcvSeq:vector ETV
attr interpolationmode sample-hold
vector 398 scenario.client2.tcp.conn-46 rcvAck:vector ETV
attr interpolationmode sample-hold
vector 399 scenario.client2.tcp.conn-46 unacked:vector ETV
attr interpolationmode sample-hold
vector 400 scenario.client2.tcp.conn-46 cwnd:vector ETV
attr interpolationmode sample-hold
vector 401 scenario.client2.tcp.conn-46 ssthresh:vector ETV
attr interpolationmode sample-hold
vector 402 scenario.client2.tcp.conn-46 dupAcks:vector ETV
attr interpolationmode sample-hold
vector 403 scenario.client1.tcp.conn-45 rtt:vector ETV
attr interpolationmode sample-hold
vector 404 scenario.client1.tcp.conn-45 srtt:vector ETV
attr interpolationmode sample-hold
vector 405 scenario.client1.tcp.conn-45 rttvar:vector ETV
attr interpolationmode sample-hold
vector 406 scenario.client1.tcp.conn-45 rto:vector ETV
attr interpolationmode sample-hold
vector 407 scenario.client1.tcp.conn-45 cwnd:vector ETV
attr interpolationmode sample-hold
vector 408 scenario.client1.tcp.conn-45 ssthresh:vector ETV
attr interpolationmode sample-hold
vector 409 scenario.client1.tcp.conn-45 dupAcks:vector ETV
attr interpolationmode sample-hold
vector 410 scenario.client0.tcp.conn-47 tcpRcvQueueBytes:vector ETV
attr interpolationmode sample-hold
vector 411 scenario.client0.tcp.conn-47 rcvAdv:vector ETV
attr interpolationmode sample-hold
vector 412 scenario.client0.tcp.conn-47 rcvWnd:vector ETV
attr interpolationmode sample-hold
vector 413 scenario.client0.tcp.conn-47 sndAck:vector ETV
attr interpolationmode sample-hold
vector 414 scenario.client1.tcp.conn-48 rcvAdv:vector ETV
attr interpolationmode sample-hold
vector 415 scenario.client1.tcp.conn-48 sndWnd:vector ETV
attr interpolationmode sample-hold
vector 416 scenario.client1.tcp.conn-48 tcpRcvQueueBytes:vector ETV
attr interpolationmode sample-hold
vector 417 scenario.client1.tcp.conn-48 rcvWnd:vector ETV
attr interpolationmode sample-hold
vector 418 scenario.client1.tcp.conn-48 sndAck:vector ETV
attr interpolationmode sample-hold
vector 419 scenario.client0.tcp.conn-47 rcvSeq:vector ETV
attr interpolationmode sample-hold
vector 420 scenario.client0.tcp.conn-47 rcvAck:vector ETV
attr interpolationmode sample-hold
vector 421 scenario.client0.tcp.conn-47 sndWnd:vector ETV
attr interpolationmode sample-hold
vector 422 scenario.client0.tcp.conn-47 unacked:vector ETV
attr interpolationmode sample-hold
vector 423 scenario.client1.tcp.conn-48 rcvSeq:vector ETV
attr interpolationmode sample-hold
vector 424 scenario.client1.tcp.conn-48 rcvAck:vector ETV
attr interpolationmode sample-hold
vector 425 scenario.client1.tcp.conn-48 unacked:vector ETV
attr interpolationmode sample-hold
vector 426 scenario.client1.tcp.conn-48 cwnd:vector ETV
attr interpolationmode sample-hold
vector 427 scenario.client1.tcp.conn-48 ssthresh:vector ETV
attr interpolationmode sample-hold
vector 428 scenario.client1.tcp.conn-48 dupAcks:vector ETV
attr interpolationmode sample-hold
vector 429 scenario.client0.tcp.conn-47 rtt:vector ETV
attr interpolationmode sample-hold
vector 430 scenario.client0.tcp.conn-47 srtt:vector ETV
attr interpolationmode sample-hold
vector 431 scenario.client0.tcp.conn-47 rttvar:vector ETV
attr interpolationmode sample-hold
vector 432 scenario.client0.tcp.conn-47 rto:vector ETV
attr interpolationmode sample-hold
vector 433 scenario.client0.tcp.conn-47 cwnd:vector ETV
attr interpolationmode sample-hold
vector 434 scenario.client0.tcp.conn-47 ssthresh:vector ETV
attr interpolationmode sample-hold
vector 435 scenario.client0.tcp.conn-47 dupAcks:vector ETV
attr interpolationmode sample-hold
vector 436 scenario.client0.tcp.conn-49 tcpRcvQueueBytes:vector ETV
attr interpolationmode sample-hold
vector 437 scenario.client0.tcp.conn-49 rcvAdv:vector ETV
attr interpolationmode sample-hold
vector 438 scenario.client0.tcp.conn-49 rcvWnd:vector ETV
attr interpolationmode sample-hold
vector 439 scenario.client0.tcp.conn-49 sndAck:vector ETV
attr interpolationmode sample-hold
vector 440 scenario.client3.tcp.conn-50 tcpRcvQueueBytes:vector ETV
attr interpolationmode sample-hold
vector 441 scenario.client3.tcp.conn-50 rcvAdv:vector ETV
attr interpolationmode sample-hold
vector 442 scenario.client3.tcp.conn-50 rcvWnd:vector ETV
attr interpolationmode sample-hold
vector 443 scenario.client3.tcp.conn-50 sndAck:vector ETV
attr interpolationmode sample-hold
vector 444 scenario.client0.ppp[3].ppp rcvdPkFromHl:vector(packetBytes) ETV
attr interpolationmode none
attr source packetReceivedFromUpper
attr title "packets received from higher layer, vector(packetBytes)"
vector 445 scenario.client0.ppp[3].ppp.queue packetPushed:vector(packetBytes) ETV
attr interpolationmode none
attr title "packet pushed, vector(packetBytes)"
vector 446 scenario.client0.ppp[3].ppp.queue queueLength:vector ETV
attr interpolationmode sample-hold
attr source "count(packetPushed) - count(packetPopped) - count(packetRemoved) - count(packetDropped)"
attr title "queue length, vector"
vector 447 scenario.client0.ppp[3].ppp.queue packetPopped:vector(packetBytes) ETV
attr interpolationmode none
attr title "packet popped, vector(packetBytes)"
vector 448 scenario.client0.ppp[3].ppp.queue queueingTime:vector ETV
attr interpolationmode none
attr source queueingTime(packetPopped)
attr title "queueing times, vector"
attr unit s
vector 449 scenario.client0.ppp[3].ppp txPk:vector(packetBytes) ETV
attr interpolationmode none
attr source packetSentToLower
attr title "packets transmitted, vector(packetBytes)"
vector 450 scenario.client3.ppp[3].ppp rcvdPkFromHl:vector(packetBytes) ETV
attr interpolationmode none
attr source packetReceivedFromUpper
attr title "packets received from higher layer, vector(packetBytes)"
vector 451 scenario.client3.ppp[3].ppp.queue packetPushed:vector(packetBytes) ETV
attr interpolationmode none
attr title "packet pushed, vector(packetBytes)"
vector 452 scenario.client3.ppp[3].ppp.queue queueLength:vector ETV
attr interpolationmode sample-hold
attr source "count(packetPushed) - count(packetPopped) - count(packetRemoved) - count(packetDropped)"
attr title "queue length, vector"
vector 453 scenario.client3.ppp[3].ppp.queue packetPopped:vector(packetBytes) ETV
attr interpolationmode none
attr title "packet popped, vector(packetBytes)"
vector 454 scenario.client3.ppp[3].ppp.queue queueingTime:vector ETV
attr interpolationmode none
attr source queueingTime(packetPopped)
attr title "queueing times, vector"
attr unit s
vector 455 scenario.client3.ppp[3].ppp txPk:vector(packetBytes) ETV
attr interpolationmode none
attr source packetSentToLower
attr title "packets transmitted, vector(packetBytes)"
vector 456 scenario.client4.ppp[0].ppp rxPkOk:vector(packetBytes) ETV
attr interpolationmode none
attr source rxPkOk
attr title "packets received OK, vector(packetBytes)"
vector 457 scenario.client4.ppp[0].ppp passedUpPk:vector(packetBytes) ETV
attr interpolationmode none
attr source packetSentToUpper
attr title "packets passed to higher layer, vector(packetBytes)"
vector 458 scenario.client4.ppp[3].ppp rxPkOk:vector(packetBytes) ETV
attr interpolationmode none
attr source rxPkOk
attr title "packets received OK, vector(packetBytes)"
vector 459 scenario.client4.ppp[3].ppp passedUpPk:vector(packetBytes) ETV
attr interpolationmode none
attr source packetSentToUpper
attr title "packets passed to higher layer, vector(packetBytes)"
vector 460 scenario.client4.tcp.conn-4 rcvSeq:vector ETV
attr interpolationmode sample-hold
vector 461 scenario.client4.tcp.conn-4 rcvAck:vector ETV
attr interpolationmode sample-hold
vector 462 scenario.client4.tcp.conn-51 rcvAdv:vector ETV
attr interpolationmode sample-hold
vector 463 scenario.client4.tcp.conn-51 sndWnd:vector ETV
attr interpolationmode sample-hold
vector 464 scenario.client4.tcp.conn-51 tcpRcvQueueBytes:vector ETV
attr interpolationmode sample-hold
vector 465 scenario.client4.tcp.conn-51 rcvWnd:vector ETV
attr interpolationmode sample-hold
vector 466 scenario.client4.tcp.conn-51 sndAck:vector ETV
attr interpolationmode sample-hold
vector 467 scenario.client4.tcp.conn-52 rcvAdv:vector ETV
attr interpolationmode sample-hold
vector 468 scenario.client4.tcp.conn-52 sndWnd:vector ETV
attr interpolationmode sample-hold
vector 469 scenario.client4.tcp.conn-52 tcpRcvQueueBytes:vector ETV
attr interpolationmode sample-hold
vector 470 scenario.client4.tcp.conn-52 rcvWnd:vector ETV
attr interpolationmode sample-hold
vector 471 scenario.client4.tcp.conn-52 sndAck:vector ETV
attr interpolationmode sample-hold
vector 472 scenario.client4.ppp[0].ppp rcvdPkFromHl:vector(packetBytes) ETV
attr interpolationmode none
attr source packetReceivedFromUpper
attr title "packets received from higher layer, vector(packetBytes)"
vector 473 scenario.client4.ppp[0].ppp.queue packetPushed:vector(packetBytes) ETV
attr interpolationmode none
attr title "packet pushed, vector(packetBytes)"
vector 474 scenario.client4.ppp[0].ppp.queue queueLength:vector ETV
attr interpolationmode sample-hold
attr source "count(packetPushed) - count(packetPopped) - count(packetRemoved) - count(packetDropped)"
attr title "queue length, vector"
vector 475 scenario.client4.ppp[0].ppp.queue packetPopped:vector(packetBytes) ETV
attr interpolationmode none
attr title "packet popped, vector(packetBytes)"
vector 476 scenario.client4.ppp[0].ppp.queue queueingTime:vector ETV
attr interpolationmode none
attr source queueingTime(packetPopped)
attr title "queueing times, vector"
attr unit s
vector 477 scenario.client4.ppp[0].ppp txPk:vector(packetBytes) ETV
attr interpolationmode none
attr source packetSentToLower
attr title "packets transmitted, vector(packetBytes)"
vector 478 scenario.client4.ppp[3].ppp rcvdPkFromHl:vector(packetBytes) ETV
attr interpolationmode none
attr source packetReceivedFromUpper
attr title "packets received from higher layer, vector(packetBytes)"
vector 479 scenario.client4.ppp[3].ppp.queue packetPushed:vector(packetBytes) ETV
attr interpolationmode none
attr title "packet pushed, vector(packetBytes)"
vector 480 scenario.client4.ppp[3].ppp.queue queueLength:vector ETV
attr interpolationmode sample-hold
attr source "count(packetPushed) - count(packetPopped) - count(packetRemoved) - count(packetDropped)"
attr title "queue length, vector"
vector 481 scenario.client4.ppp[3].ppp.queue packetPopped:vector(packetBytes) ETV
attr interpolationmode none
attr title "packet popped, vector(packetBytes)"
vector 482 scenario.client4.ppp[3].ppp.queue queueingTime:vector ETV
attr interpolationmode none
attr source queueingTime(packetPopped)
attr title "queueing times, vector"
attr unit s
vector 483 scenario.client4.ppp[3].ppp txPk:vector(packetBytes) ETV
attr interpolationmode none
attr source packetSentToLower
attr title "packets transmitted, vector(packetBytes)"
vector 484 scenario.client0.ppp[3].ppp rxPkOk:vector(packetBytes) ETV
attr interpolationmode none
attr source rxPkOk
attr title "packets received OK, vector(packetBytes)"
vector 485 scenario.client0.ppp[3].ppp passedUpPk:vector(packetBytes) ETV
attr interpolationmode none
attr source packetSentToUpper
attr title "packets passed to higher layer, vector(packetBytes)"
vector 486 scenario.client3.ppp[3].ppp rxPkOk:vector(packetBytes) ETV
attr interpolationmode none
attr source rxPkOk
attr title "packets received OK, vector(packetBytes)"
vector 487 scenario.client3.ppp[3].ppp passedUpPk:vector(packetBytes) ETV
attr interpolationmode none
attr source packetSentToUpper
attr title "packets passed to higher layer, vector(packetBytes)"
vector 488 scenario.client0.tcp.conn-49 rcvSeq:vector ETV
attr interpolationmode sample-hold
vector 489 scenario.client0.tcp.conn-49 rcvAck:vector ETV
attr interpolationmode sample-hold
vector 490 scenario.client0.tcp.conn-49 sndWnd:vector ETV
attr interpolationmode sample-hold
vector 491 scenario.client0.tcp.conn-49 unacked:vector ETV
attr interpolationmode sample-hold
vector 492 scenario.client3.tcp.conn-50 rcvSeq:vector ETV
attr interpolationmode sample-hold
vector 493 scenario.client3.tcp.conn-50 rcvAck:vector ETV
attr interpolationmode sample-hold
vector 494 scenario.client3.tcp.conn-50 sndWnd:vector ETV
attr interpolationmode sample-hold
vector 495 scenario.client3.tcp.conn-50 unacked:vector ETV
attr interpolationmode sample-hold
vector 496 scenario.client4.tcp.conn-51 rcvSeq:vector ETV
attr interpolationmode sample-hold
vector 497 scenario.client4.tcp.conn-51 rcvAck:vector ETV
attr interpolationmode sample-hold
vector 498 scenario.client4.tcp.conn-51 unacked:vector ETV
attr interpolationmode sample-hold
vector 499 scenario.client4.tcp.conn-51 cwnd:vector ETV
attr interpolationmode sample-hold
vector 500 scenario.client4.tcp.conn-51 ssthresh:vector ETV
attr interpolationmode sample-hold
vector 501 scenario.client4.tcp.conn-51 dupAcks:vector ETV
attr interpolationmode sample-hold
vector 502 scenario.client4.tcp.conn-52 rcvSeq:vector ETV
attr interpolationmode sample-hold
vector 503 scenario.client4.tcp.conn-52 rcvAck:vector ETV
attr interpolationmode sample-hold
vector 504 scenario.client4.tcp.conn-52 unacked:vector ETV
attr interpolationmode sample-hold
vector 505 scenario.client4.tcp.conn-52 cwnd:vector ETV
attr interpolationmode sample-hold
vector 506 scenario.client4.tcp.conn-52 ssthresh:vector ETV
attr interpolationmode sample-hold
vector 507 scenario.client4.tcp.conn-52 dupAcks:vector ETV
attr interpolationmode sample-hold
vector 508 scenario.client0.tcp.conn-49 rtt:vector ETV
attr interpolationmode sample-hold
vector 509 scenario.client0.tcp.conn-49 srtt:vector ETV
attr interpolationmode sample-hold
vector 510 scenario.client0.tcp.conn-49 rttvar:vector ETV
attr interpolationmode sample-hold
vector 511 scenario.client0.tcp.conn-49 rto:vector ETV
attr interpolationmode sample-hold
vector 512 scenario.client0.tcp.conn-49 cwnd:vector ETV
attr interpolationmode sample-hold
vector 513 scenario.client0.tcp.conn-49 ssthresh:vector ETV
attr interpolationmode sample-hold
vector 514 scenario.client0.tcp.conn-49 dupAcks:vector ETV
attr interpolationmode sample-hold
vector 515 scenario.client3.tcp.conn-50 rtt:vector ETV
attr interpolationmode sample-hold
vector 516 scenario.client3.tcp.conn-50 srtt:vector ETV
attr interpolationmode sample-hold
vector 517 scenario.client3.tcp.conn-50 rttvar:vector ETV
attr interpolationmode sample-hold
vector 518 scenario.client3.tcp.conn-50 rto:vector ETV
attr interpolationmode sample-hold
vector 519 scenario.client3.tcp.conn-50 cwnd:vector ETV
attr interpolationmode sample-hold
vector 520 scenario.client3.tcp.conn-50 ssthresh:vector ETV
attr interpolationmode sample-hold
vector 521 scenario.client3.tcp.conn-50 dupAcks:vector ETV
attr interpolationmode sample-hold
vector 522 scenario.client1.tcp.conn-53 tcpRcvQueueBytes:vector ETV
attr interpolationmode sample-hold
vector 523 scenario.client1.tcp.conn-53 rcvAdv:vector ETV
attr interpolationmode sample-hold
vector 524 scenario.client1.tcp.conn-53 rcvWnd:vector ETV
attr interpolationmode sample-hold
vector 525 scenario.client1.tcp.conn-53 sndAck:vector ETV
attr interpolationmode sample-hold
vector 526 scenario.client1.ppp[3].ppp rcvdPkFromHl:vector(packetBytes) ETV
attr interpolationmode none
attr source packetReceivedFromUpper
attr title "packets received from higher layer, vector(packetBytes)"
vector 527 scenario.client1.ppp[3].ppp.queue packetPushed:vector(packetBytes) ETV
attr interpolationmode none
attr title "packet pushed, vector(packetBytes)"
vector 528 scenario.client1.ppp[3].ppp.queue queueLength:vector ETV
attr interpolationmode sample-hold
attr source "count(packetPushed) - count(packetPopped) - count(packetRemoved) - count(packetDropped)"
attr title "queue length, vector"
vector 529 scenario.client1.ppp[3].ppp.queue packetPopped:vector(packetBytes) ETV
attr interpolationmode none
attr title "packet popped, vector(packetBytes)"
vector 530 scenario.client1.ppp[3].ppp.queue queueingTime:vector ETV
attr interpolationmode none
attr source queueingTime(packetPopped)
attr title "queueing times, vector"
attr unit s
vector 531 scenario.client1.ppp[3].ppp txPk:vector(packetBytes) ETV
attr interpolationmode none
attr source packetSentToLower
attr title "packets transmitted, vector(packetBytes)"
vector 532 scenario.client2.tcp.conn-54 tcpRcvQueueBytes:vector ETV
attr interpolationmode sample-hold
vector 533 scenario.client2.tcp.conn-54 rcvAdv:vector ETV
attr interpolationmode sample-hold
vector 534 scenario.client2.tcp.conn-54 rcvWnd:vector ETV
attr interpolationmode sample-hold
vector 535 scenario.client2.tcp.conn-54 sndAck:vector ETV
attr interpolationmode sample-hold
vector 536 scenario.client2.ppp[3].ppp rcvdPkFromHl:vector(packetBytes) ETV
attr interpolationmode none
attr source packetReceivedFromUpper
attr title "packets received from higher layer, vector(packetBytes)"
vector 537 scenario.client2.ppp[3].ppp.queue packetPushed:vector(packetBytes) ETV
attr interpolationmode none
attr title "packet pushed, vector(packetBytes)"
vector 538 scenario.client2.ppp[3].ppp.queue queueLength:vector ETV
attr interpolationmode sample-hold
attr source "count(packetPushed) - count(packetPopped) - count(packetRemoved) - count(packetDropped)"
attr title "queue length, vector"
vector 539 scenario.client2.ppp[3].ppp.queue packetPopped:vector(packetBytes) ETV
attr interpolationmode none
attr title "packet popped, vector(packetBytes)"
vector 540 scenario.client2.ppp[3].ppp.queue queueingTime:vector ETV
attr interpolationmode none
attr source queueingTime(packetPopped)
attr title "queueing times, vector"
attr unit s
vector 541 scenario.client2.ppp[3].ppp txPk:vector(packetBytes) ETV
attr interpolationmode none
attr source packetSentToLower
attr title "packets transmitted, vector(packetBytes)"
vector 542 scenario.client4.ppp[1].ppp rxPkOk:vector(packetBytes) ETV
attr interpolationmode none
attr source rxPkOk
attr title "packets received OK, vector(packetBytes)"
vector 543 scenario.client4.ppp[1].ppp passedUpPk:vector(packetBytes) ETV
attr interpolationmode none
attr source packetSentToUpper
attr title "packets passed to higher layer, vector(packetBytes)"
vector 544 scenario.client4.tcp.conn-55 rcvAdv:vector ETV
attr interpolationmode sample-hold
vector 545 scenario.client4.tcp.conn-55 sndWnd:vector ETV
attr interpolationmode sample-hold
vector 546 scenario.client4.tcp.conn-55 tcpRcvQueueBytes:vector ETV
attr interpolationmode sample-hold
vector 547 scenario.client4.tcp.conn-55 rcvWnd:vector ETV
attr interpolationmode sample-hold
vector 548 scenario.client4.tcp.conn-55 sndAck:vector ETV
attr interpolationmode sample-hold
vector 549 scenario.client4.ppp[1].ppp rcvdPkFromHl:vector(packetBytes) ETV
attr interpolationmode none
attr source packetReceivedFromUpper
attr title "packets received from higher layer, vector(packetBytes)"
vector 550 scenario.client4.ppp[1].ppp.queue packetPushed:vector(packetBytes) ETV
attr interpolationmode none
attr title "packet pushed, vector(packetBytes)"
vector 551 scenario.client4.ppp[1].ppp.queue queueLength:vector ETV
attr interpolationmode sample-hold
attr source "count(packetPushed) - count(packetPopped) - count(packetRemoved) - count(packetDropped)"
attr title "queue length, vector"
vector 552 scenario.client4.ppp[1].ppp.queue packetPopped:vector(packetBytes) ETV
attr interpolationmode none
attr title "packet popped, vector(packetBytes)"
vector 553 scenario.client4.ppp[1].ppp.queue queueingTime:vector ETV
attr interpolationmode none
attr source queueingTime(packetPopped)
attr title "queueing times, vector"
attr unit s
vector 554 scenario.client4.ppp[1].ppp txPk:vector(packetBytes) ETV
attr interpolationmode none
attr source packetSentToLower
attr title "packets transmitted, vector(packetBytes)"
vector 555 scenario.client4.ppp[2].ppp rxPkOk:vector(packetBytes) ETV
attr interpolationmode none
attr source rxPkOk
attr title "packets received OK, vector(packetBytes)"
vector 556 scenario.client4.ppp[2].ppp passedUpPk:vector(packetBytes) ETV
attr interpolationmode none
attr source packetSentToUpper
attr title "packets passed to higher layer, vector(packetBytes)"
vector 557 scenario.client4.tcp.conn-56 rcvAdv:vector ETV
attr interpolationmode sample-hold
vector 558 scenario.client4.tcp.conn-56 sndWnd:vector ETV
attr interpolationmode sample-hold
vector 559 scenario.client4.tcp.conn-56 tcpRcvQueueBytes:vector ETV
attr interpolationmode sample-hold
vector 560 scenario.client4.tcp.conn-56 rcvWnd:vector ETV
attr interpolationmode sample-hold
vector 561 scenario.client4.tcp.conn-56 sndAck:vector ETV
attr interpolationmode sample-hold
vector 562 scenario.client4.ppp[2].ppp rcvdPkFromHl:vector(packetBytes) ETV
attr interpolationmode none
attr source packetReceivedFromUpper
attr title "packets received from higher layer, vector(packetBytes)"
vector 563 scenario.client4.ppp[2].ppp.queue packetPushed:vector(packetBytes) ETV
attr interpolationmode none
attr title "packet pushed, vector(packetBytes)"
vector 564 scenario.client4.ppp[2].ppp.queue queueLength:vector ETV
attr interpolationmode sample-hold
attr source "count(packetPushed) - count(packetPopped) - count(packetRemoved) - count(packetDropped)"
attr title "queue length, vector"
vector 565 scenario.client4.ppp[2].ppp.queue packetPopped:vector(packetBytes) ETV
attr interpolationmode none
attr title "packet popped, vector(packetBytes)"
vector 566 scenario.client4.ppp[2].ppp.queue queueingTime:vector ETV
attr interpolationmode none
attr source queueingTime(packetPopped)
attr title "queueing times, vector"
attr unit s
vector 567 scenario.client4.ppp[2].ppp txPk:vector(packetBytes) ETV
attr interpolationmode none
attr source packetSentToLower
attr title "packets transmitted, vector(packetBytes)"
vector 568 scenario.client1.ppp[3].ppp rxPkOk:vector(packetBytes) ETV
attr interpolationmode none
attr source rxPkOk
attr title "packets received OK, vector(packetBytes)"
vector 569 scenario.client1.ppp[3].ppp passedUpPk:vector(packetBytes) ETV
attr interpolationmode none
attr source packetSentToUpper
attr title "packets passed to higher layer, vector(packetBytes)"
vector 570 scenario.client1.tcp.conn-53 rcvSeq:vector ETV
attr interpolationmode sample-hold
vector 571 scenario.client1.tcp.conn-53 rcvAck:vector ETV
attr interpolationmode sample-hold
vector 572 scenario.client1.tcp.conn-53 sndWnd:vector ETV
attr interpolationmode sample-hold
vector 573 scenario.client1.tcp.conn-53 unacked:vector ETV
attr interpolationmode sample-hold
vector 574 scenario.client2.ppp[3].ppp rxPkOk:vector(packetBytes) ETV
attr interpolationmode none
attr source rxPkOk
attr title "packets received OK, vector(packetBytes)"
vector 575 scenario.client2.ppp[3].ppp passedUpPk:vector(packetBytes) ETV
attr interpolationmode none
attr source packetSentToUpper
attr title "packets passed to higher layer, vector(packetBytes)"
vector 576 scenario.client2.tcp.conn-54 rcvSeq:vector ETV
attr interpolationmode sample-hold
vector 577 scenario.client2.tcp.conn-54 rcvAck:vector ETV
attr interpolationmode sample-hold
vector 578 scenario.client2.tcp.conn-54 sndWnd:vector ETV
attr interpolationmode sample-hold
vector 579 scenario.client2.tcp.conn-54 unacked:vector ETV
attr interpolationmode sample-hold
vector 580 scenario.client4.tcp.conn-55 rcvSeq:vector ETV
attr interpolationmode sample-hold
vector 581 scenario.client4.tcp.conn-55 rcvAck:vector ETV
attr interpolationmode sample-hold
vector 582 scenario.client4.tcp.conn-55 unacked:vector ETV
attr interpolationmode sample-hold
vector 583 scenario.client4.tcp.conn-55 cwnd:vector ETV
attr interpolationmode sample-hold
vector 584 scenario.client4.tcp.conn-55 ssthresh:vector ETV
attr interpolationmode sample-hold
vector 585 scenario.client4.tcp.conn-55 dupAcks:vector ETV
attr interpolationmode sample-hold
vector 586 scenario.client4.tcp.conn-56 rcvSeq:vector ETV
attr interpolationmode sample-hold
vector 587 scenario.client4.tcp.conn-56 rcvAck:vector ETV
attr interpolationmode sample-hold
vector 588 scenario.client4.tcp.conn-56 unacked:vector ETV
attr interpolationmode sample-hold
vector 589 scenario.client4.tcp.conn-56 cwnd:vector ETV
attr interpolationmode sample-hold
vector 590 scenario.client4.tcp.conn-56 ssthresh:vector ETV
attr interpolationmode sample-hold
vector 591 scenario.client4.tcp.conn-56 dupAcks:vector ETV
attr interpolationmode sample-hold
vector 592 scenario.client1.tcp.conn-53 rtt:vector ETV
attr interpolationmode sample-hold
vector 593 scenario.client1.tcp.conn-53 srtt:vector ETV
attr interpolationmode sample-hold
vector 594 scenario.client1.tcp.conn-53 rttvar:vector ETV
attr interpolationmode sample-hold
vector 595 scenario.client1.tcp.conn-53 rto:vector ETV
attr interpolationmode sample-hold
vector 596 scenario.client1.tcp.conn-53 cwnd:vector ETV
attr interpolationmode sample-hold
vector 597 scenario.client1.tcp.conn-53 ssthresh:vector ETV
attr interpolationmode sample-hold
vector 598 scenario.client1.tcp.conn-53 dupAcks:vector ETV
attr interpolationmode sample-hold
vector 599 scenario.client2.tcp.conn-54 rtt:vector ETV
attr interpolationmode sample-hold
vector 600 scenario.client2.tcp.conn-54 srtt:vector ETV
attr interpolationmode sample-hold
vector 601 scenario.client2.tcp.conn-54 rttvar:vector ETV
attr interpolationmode sample-hold
vector 602 scenario.client2.tcp.conn-54 rto:vector ETV
attr interpolationmode sample-hold
vector 603 scenario.client2.tcp.conn-54 cwnd:vector ETV
attr interpolationmode sample-hold
vector 604 scenario.client2.tcp.conn-54 ssthresh:vector ETV
attr interpolationmode sample-hold
vector 605 scenario.client2.tcp.conn-54 dupAcks:vector ETV
attr interpolationmode sample-hold
0	0	0	0
0	246	3.394535735221	1
0	247	3.394943735221	0
0	261	3.396327735221	1
0	264	3.396703735221	0
0	368	3.946226386303	1
0	369	3.946634386303	0
0	381	3.948042386303	1
0	382	3.948426386303	0
0	436	4.165057433637	1
0	437	4.165433433637	0
0	444	4.43600179754	1
0	445	4.43638579754	0
0	459	4.535399546128	1
0	460	4.535783546128	0
0	502	4.537551546128	1
0	503	4.537927546128	0
0	741	4.754735036958	1
0	745	4.755127036958	0
0	848	4.821326424635	1
0	849	4.821710424635	0
0	891	4.823478424635	1
0	892	4.823854424635	0
0	912	4.870368632587	1
0	913	4.870744632587	0
0	942	4.910255287698	1
0	943	4.910631287698	0
0	1210	5.397454846522	1
0	1211	5.397830846522	0
1	0	0	0
1	272	3.571398052919	1
1	273	3.571806052919	0
1	285	3.573214052919	1
1	286	3.573598052919	0
1	310	3.704268087893	1
1	311	3.704676087893	0
1	325	3.706060087893	1
1	328	3.706436087893	0
1	421	4.12819107419	1
1	422	4.12856707419	0
1	516	4.582307531968	1
1	517	4.582691531968	0
1	596	4.645362625446	1
1	608	4.645738625446	0
1	682	4.650423808343	1
1	683	4.650807808343	0
1	737	4.754735036958	1
1	744	4.755111036958	0
1	744	4.755111036958	1
1	747	4.755503036958	0
1	984	4.916182841762	1
1	987	4.916558841762	0
1	1029	4.940651723136	1
1	1030	4.941027723136	0
1	1098	5.168077729301	1
1	1099	5.168461729301	0
1	1135	5.190566760461	1
1	1136	5.190942760461	0
2	0	0	0
2	49	0.690107499496	1
2	50	0.690515499496	0
2	64	0.691899499496	1
2	67	0.692275499496	0
2	75	0.747321112704	1
2	76	0.747729112704	0
2	88	0.749137112704	1
2	89	0.749521112704	0
2	743	4.754735036958	1
2	746	4.755127036958	0
2	927	4.90335914133	1
2	928	4.90373514133	0
2	1007	4.927653948423	1
2	1008	4.928037948423	0
2	1060	5.083998198919	1
2	1061	5.084374198919	0
2	1263	5.727451489486	1
2	1264	5.727835489486	0
3	0	0	0
3	605	4.645362625446	1
3	615	4.645770625446	0
3	649	4.647178625446	1
3	651	4.647562625446	0
4	0	0	0
4	240	3.393627735221	1
4	241	3.394035735221	0
4	253	3.395443735221	1
4	254	3.395827735221	0
4	374	3.947134386303	1
4	375	3.947542386303	0
4	389	3.948926386303	1
4	392	3.949302386303	0
4	429	4.164173433637	1
4	430	4.164557433637	0
4	451	4.43688579754	1
4	452	4.43726179754	0
4	469	4.536283546128	1
4	476	4.536659546128	0
4	476	4.536659546128	1
4	479	4.537051546128	0
4	762	4.755627036958	1
4	769	4.756003036958	0
4	858	4.822210424635	1
4	865	4.822586424635	0
4	865	4.822586424635	1
4	868	4.822978424635	0
4	905	4.869484632587	1
4	906	4.869868632587	0
4	935	4.909371287698	1
4	936	4.909755287698	0
4	1203	5.396570846522	1
4	1204	5.396954846522	0
5	0	0	0
5	214	3.218077713431	1
5	215	3.218485713431	0
5	229	3.219869713431	1
5	232	3.220245713431	0
5	336	3.782403027436	1
5	337	3.782811027436	0
5	349	3.784219027436	1
5	350	3.784603027436	0
5	399	4.010756886501	1
5	400	4.011140886501	0
5	474	4.536283546128	1
5	477	4.536675546128	0
5	553	4.64013907065	1
5	554	4.64051507065	0
5	561	4.643586625446	1
5	562	4.643970625446	0
5	614	4.645738625446	1
5	617	4.646114625446	0
5	863	4.822210424635	1
5	866	4.822602424635	0
5	950	4.914406841762	1
5	951	4.914790841762	0
5	993	4.916558841762	1
5	994	4.916934841762	0
5	1083	5.150469586108	1
5	1084	5.150853586108	0
5	1150	5.209274606769	1
5	1151	5.209650606769	0
5	1165	5.243794151311	1
5	1166	5.244170151311	0
5	1225	5.601316416272	1
5	1226	5.601692416272	0
6	0	0	0
6	113	0.790116655049	1
6	114	0.790524655049	0
6	128	0.791908655049	1
6	131	0.792284655049	0
6	171	1.299919763786	1
6	172	1.300327763786	0
6	184	1.301735763786	1
6	185	1.302119763786	0
6	475	4.536283546128	1
6	478	4.536675546128	0
6	712	4.729283636829	1
6	713	4.729667636829	0
6	864	4.822210424635	1
6	867	4.822602424635	0
6	1075	5.137649738578	1
6	1076	5.138025738578	0
6	1113	5.175828393933	1
6	1114	5.176212393933	0
6	1180	5.272755180028	1
6	1181	5.273131180028	0
6	1188	5.284688954008	1
6	1189	5.285072954008	0
7	0	0	0
7	767	4.755627036958	1
7	781	4.756035036958	0
7	810	4.757443036958	1
7	817	4.757827036958	0
8	0	0	0
8	278	3.572306052919	1
8	279	3.572714052919	0
8	293	3.574098052919	1
8	296	3.574474052919	0
8	304	3.703360087893	1
8	305	3.703768087893	0
8	317	3.705176087893	1
8	318	3.705560087893	0
8	414	4.12730707419	1
8	415	4.12769107419	0
8	523	4.583191531968	1
8	524	4.583567531968	0
8	575	4.644470625446	1
8	579	4.644862625446	0
8	689	4.651307808343	1
8	690	4.651683808343	0
8	727	4.753851036958	1
8	728	4.754235036958	0
8	776	4.756003036958	1
8	782	4.756379036958	0
8	964	4.915290841762	1
8	968	4.915682841762	0
8	1022	4.939767723136	1
8	1023	4.940151723136	0
8	1105	5.168961729301	1
8	1106	5.169337729301	0
8	1128	5.189682760461	1
8	1129	5.190066760461	0
9	0	0	0
9	208	3.217169713431	1
9	209	3.217577713431	0
9	221	3.218985713431	1
9	222	3.219369713431	0
9	342	3.783311027436	1
9	343	3.783719027436	0
9	357	3.785103027436	1
9	360	3.785479027436	0
9	406	4.011640886501	1
9	407	4.012016886501	0
9	493	4.537175546128	1
9	496	4.537551546128	0
9	546	4.63925507065	1
9	547	4.63963907065	0
9	571	4.644470625446	1
9	578	4.644846625446	0
9	578	4.644846625446	1
9	581	4.645238625446	0
9	882	4.823102424635	1
9	885	4.823478424635	0
9	960	4.915290841762	1
9	967	4.915666841762	0
9	967	4.915666841762	1
9	970	4.916058841762	0
9	1090	5.151353586108	1
9	1091	5.151729586108	0
9	1143	5.208390606769	1
[...]
374	321	3.706060087893	1072
375	321	3.706060087893	4294967295
376	321	3.706060087893	0
376	418	4.12819107419	0
376	589	4.645362625446	0
376	731	4.754735036958	0
376	978	4.916182841762	0
376	1026	4.940651723136	0
376	1132	5.190566760461	0
377	331	3.706936087893	0.00176
377	425	4.12906707419	0.00176
377	622	4.646238625446	0.001768
377	750	4.755611036958	0.00176
377	999	4.917058841762	0.001768
377	1033	4.941527723136	0.00176
377	1139	5.191442760461	0.00176
378	331	3.706936087893	0.00022
378	425	4.12906707419	0.0004125
378	622	4.646238625446	0.0005819375
378	750	4.755611036958	0.000729195313
378	999	4.917058841762	0.000859045899
378	1033	4.941527723136	0.000971665162
378	1139	5.191442760461	0.001070207017
379	331	3.706936087893	0.65647
379	425	4.12906707419	0.57460375
379	622	4.646238625446	0.50294771875
379	750	4.755611036958	0.440226511719
379	999	4.917058841762	0.38532804834
379	1033	4.941527723136	0.33727466156
379	1139	5.191442760461	0.29521387072
380	331	3.706936087893	2.6261
380	425	4.12906707419	2.2988275
380	622	4.646238625446	2.0123728125
380	750	4.755611036958	1.761635242189
380	999	4.917058841762	1.542171239259
380	1033	4.941527723136	1.350070311402
380	1139	5.191442760461	1.181925689897
381	331	3.706936087893	1072
381	425	4.12906707419	1608
381	622	4.646238625446	2144
381	750	4.755611036958	2680
381	999	4.917058841762	3216
381	1033	4.941527723136	3752
381	1139	5.191442760461	4288
382	331	3.706936087893	4294967295
382	425	4.12906707419	4294967295
382	622	4.646238625446	4294967295
382	750	4.755611036958	4294967295
382	999	4.917058841762	4294967295
382	1033	4.941527723136	4294967295
382	1139	5.191442760461	4294967295
383	331	3.706936087893	0
383	425	4.12906707419	0
383	622	4.646238625446	0
383	750	4.755611036958	0
383	999	4.917058841762	0
383	1033	4.941527723136	0
383	1139	5.191442760461	0
384	333	3.782403027436	0
384	346	3.784219027436	0
384	397	4.010756886501	0
384	467	4.536283546128	0
384	559	4.643586625446	0
384	856	4.822210424635	0
384	948	4.914406841762	0
384	1081	5.150469586108	0
385	333	3.782403027436	7504
385	346	3.784219027436	953332
385	346	3.784219027436	953332
385	397	4.010756886501	953332
385	467	4.536283546128	953332
385	559	4.643586625446	953332
385	856	4.822210424635	953332
385	948	4.914406841762	953332
385	1081	5.150469586108	953332
386	333	3.782403027436	7504
386	346	3.784219027436	7504
386	397	4.010756886501	7504
386	467	4.536283546128	7504
386	559	4.643586625446	7504
386	856	4.822210424635	7504
386	948	4.914406841762	7504
386	1081	5.150469586108	7504
387	333	3.782403027436	0
387	346	3.784219027436	945828
387	397	4.010756886501	945828
387	467	4.536283546128	945828
387	559	4.643586625446	945828
387	856	4.822210424635	945828
387	948	4.914406841762	945828
387	1081	5.150469586108	945828
388	340	3.783311027436	953105
388	340	3.783311027436	953105
388	353	3.785103027436	953105
388	403	4.011640886501	953107
388	487	4.537175546128	953109
388	565	4.644470625446	953110
388	876	4.823102424635	953112
388	954	4.915290841762	953113
388	1087	5.151353586108	953114
389	340	3.783311027436	7504
389	353	3.785103027436	7504
390	340	3.783311027436	0
390	353	3.785103027436	0
390	353	3.785103027436	1
390	403	4.011640886501	0
390	403	4.011640886501	0
390	487	4.537175546128	0
390	487	4.537175546128	0
390	565	4.644470625446	0
390	565	4.644470625446	0
390	876	4.823102424635	0
390	876	4.823102424635	0
390	954	4.915290841762	0
390	954	4.915290841762	0
390	1087	5.151353586108	0
390	1087	5.151353586108	0
391	340	3.783311027436	7504
391	353	3.785103027436	7503
391	403	4.011640886501	7504
391	487	4.537175546128	7504
391	565	4.644470625446	7504
391	876	4.823102424635	7504
391	954	4.915290841762	7504
391	1087	5.151353586108	7504
392	340	3.783311027436	945601
392	353	3.785103027436	945602
392	403	4.011640886501	945603
392	487	4.537175546128	945605
392	565	4.644470625446	945606
392	876	4.823102424635	945608
392	954	4.915290841762	945609
392	1087	5.151353586108	945610
393	346	3.784219027436	945827
393	363	3.785979027436	945828
393	410	4.012516886501	945828
393	508	4.538051546128	945828
393	584	4.645346625446	945828
393	897	4.823978424635	945828
393	973	4.916166841762	945828
393	1094	5.152229586108	945828
394	346	3.784219027436	945601
394	363	3.785979027436	945602
394	410	4.012516886501	945603
394	508	4.538051546128	945605
394	584	4.645346625446	945606
394	897	4.823978424635	945608
394	973	4.916166841762	945609
394	1094	5.152229586108	945610
395	346	3.784219027436	7504
395	363	3.785979027436	7503
395	410	4.012516886501	7504
395	508	4.538051546128	7504
395	584	4.645346625446	7504
395	897	4.823978424635	7504
395	973	4.916166841762	7504
395	1094	5.152229586108	7504
396	346	3.784219027436	1
396	363	3.785979027436	0
396	397	4.010756886501	1
396	410	4.012516886501	0
396	467	4.536283546128	2
396	508	4.538051546128	0
396	559	4.643586625446	1
396	584	4.645346625446	0
396	856	4.822210424635	2
396	897	4.823978424635	0
396	948	4.914406841762	1
396	973	4.916166841762	0
396	1081	5.150469586108	1
396	1094	5.152229586108	0
397	353	3.785103027436	945601
397	403	4.011640886501	945602
397	487	4.537175546128	945603
397	565	4.644470625446	945605
397	876	4.823102424635	945606
397	954	4.915290841762	945608
397	1087	5.151353586108	945609
398	353	3.785103027436	945828
398	403	4.011640886501	945828
398	487	4.537175546128	945828
398	565	4.644470625446	945828
398	876	4.823102424635	945828
398	954	4.915290841762	945828
398	1087	5.151353586108	945828
399	353	3.785103027436	0
400	353	3.785103027436	1072
401	353	3.785103027436	4294967295
402	353	3.785103027436	0
402	403	4.011640886501	0
402	487	4.537175546128	0
402	565	4.644470625446	0
402	876	4.823102424635	0
402	954	4.915290841762	0
402	1087	5.151353586108	0
403	363	3.785979027436	0.00176
403	410	4.012516886501	0.00176
403	508	4.538051546128	0.001768
403	584	4.645346625446	0.00176
403	897	4.823978424635	0.001768
403	973	4.916166841762	0.00176
403	1094	5.152229586108	0.00176
404	363	3.785979027436	0.00022
404	410	4.012516886501	0.0004125
404	508	4.538051546128	0.0005819375
404	584	4.645346625446	0.000729195313
404	897	4.823978424635	0.000859045899
404	973	4.916166841762	0.000971665162
404	1094	5.152229586108	0.001070207017
405	363	3.785979027436	0.65647
405	410	4.012516886501	0.57460375
405	508	4.538051546128	0.50294771875
405	584	4.645346625446	0.440226511719
405	897	4.823978424635	0.38532804834
405	973	4.916166841762	0.33727466156
405	1094	5.152229586108	0.29521387072
406	363	3.785979027436	2.6261
406	410	4.012516886501	2.2988275
406	508	4.538051546128	2.0123728125
406	584	4.645346625446	1.761635242189
406	897	4.823978424635	1.542171239259
406	973	4.916166841762	1.350070311402
406	1094	5.152229586108	1.181925689897
407	363	3.785979027436	1072
407	410	4.012516886501	1608
407	508	4.538051546128	2144
407	584	4.645346625446	2680
407	897	4.823978424635	3216
407	973	4.916166841762	3752
407	1094	5.152229586108	4288
408	363	3.785979027436	4294967295
408	410	4.012516886501	4294967295
408	508	4.538051546128	4294967295
408	584	4.645346625446	4294967295
408	897	4.823978424635	4294967295
408	973	4.916166841762	4294967295
408	1094	5.152229586108	4294967295
409	363	3.785979027436	0
409	410	4.012516886501	0
409	508	4.538051546128	0
409	584	4.645346625446	0
409	897	4.823978424635	0
409	973	4.916166841762	0
409	1094	5.152229586108	0
410	365	3.946226386303	0
410	378	3.948042386303	0
410	442	4.43600179754	0
410	457	4.535399546128	0
410	734	4.754735036958	0
410	846	4.821326424635	0
411	365	3.946226386303	7504
411	378	3.948042386303	994288
411	378	3.948042386303	994288
411	442	4.43600179754	994288
411	457	4.535399546128	994288
411	734	4.754735036958	994288
411	846	4.821326424635	994288
412	365	3.946226386303	7504
412	378	3.948042386303	7504
412	442	4.43600179754	7504
412	457	4.535399546128	7504
412	734	4.754735036958	7504
412	846	4.821326424635	7504
413	365	3.946226386303	0
413	378	3.948042386303	986784
413	442	4.43600179754	986784
413	457	4.535399546128	986784
413	734	4.754735036958	986784
413	846	4.821326424635	986784
414	372	3.947134386303	994061
414	372	3.947134386303	994061
414	385	3.948926386303	994061
414	448	4.43688579754	994063
414	463	4.536283546128	994064
414	755	4.755627036958	994066
414	852	4.822210424635	994067
415	372	3.947134386303	7504
415	385	3.948926386303	7504
416	372	3.947134386303	0
416	385	3.948926386303	0
416	385	3.948926386303	1
416	448	4.43688579754	0
416	448	4.43688579754	0
416	463	4.536283546128	0
416	463	4.536283546128	0
416	755	4.755627036958	0
416	755	4.755627036958	0
416	852	4.822210424635	0
416	852	4.822210424635	0
417	372	3.947134386303	7504
417	385	3.948926386303	7503
417	448	4.43688579754	7504
417	463	4.536283546128	7504
417	755	4.755627036958	7504
417	852	4.822210424635	7504
418	372	3.947134386303	986557
418	385	3.948926386303	986558
418	448	4.43688579754	986559
418	463	4.536283546128	986560
418	755	4.755627036958	986562
418	852	4.822210424635	986563
419	378	3.948042386303	986783
419	395	3.949802386303	986784
419	455	4.43776179754	986784
419	482	4.537159546128	986784
419	788	4.756503036958	986784
419	871	4.823086424635	986784
420	378	3.948042386303	986557
420	395	3.949802386303	986558
420	455	4.43776179754	986559
420	482	4.537159546128	986560
420	788	4.756503036958	986562
420	871	4.823086424635	986563
421	378	3.948042386303	7504
421	395	3.949802386303	7503
421	455	4.43776179754	7504
421	482	4.537159546128	7504
421	788	4.756503036958	7504
421	871	4.823086424635	7504
422	378	3.948042386303	1
422	395	3.949802386303	0
422	442	4.43600179754	1
422	455	4.43776179754	0
422	457	4.535399546128	1
422	482	4.537159546128	0
422	734	4.754735036958	2
422	788	4.756503036958	0
422	846	4.821326424635	1
422	871	4.823086424635	0
423	385	3.948926386303	986557
423	448	4.43688579754	986558
423	463	4.536283546128	986559
423	755	4.755627036958	986560
423	852	4.822210424635	986562
424	385	3.948926386303	986784
424	448	4.43688579754	986784
424	463	4.536283546128	986784
424	755	4.755627036958	986784
424	852	4.822210424635	986784
425	385	3.948926386303	0
426	385	3.948926386303	1072
427	385	3.948926386303	4294967295
428	385	3.948926386303	0
428	448	4.43688579754	0
428	463	4.536283546128	0
428	755	4.755627036958	0
428	852	4.822210424635	0
429	395	3.949802386303	0.00176
429	455	4.43776179754	0.00176
429	482	4.537159546128	0.00176
429	788	4.756503036958	0.001768
429	871	4.823086424635	0.00176
430	395	3.949802386303	0.00022
430	455	4.43776179754	0.0004125
430	482	4.537159546128	0.0005809375
430	788	4.756503036958	0.000729320313
430	871	4.823086424635	0.000858155274
431	395	3.949802386303	0.65647
431	455	4.43776179754	0.57460375
431	482	4.537159546128	0.50294671875
431	788	4.756503036958	0.440226761719
431	871	4.823086424635	0.385327251465
432	395	3.949802386303	2.6261
432	455	4.43776179754	2.2988275
432	482	4.537159546128	2.0123678125
432	788	4.756503036958	1.761636367189
432	871	4.823086424635	1.542167161134
433	395	3.949802386303	1072
433	455	4.43776179754	1608
433	482	4.537159546128	2144
433	788	4.756503036958	2680
433	871	4.823086424635	3216
434	395	3.949802386303	4294967295
434	455	4.43776179754	4294967295
434	482	4.537159546128	4294967295
434	788	4.756503036958	4294967295
434	871	4.823086424635	4294967295
435	395	3.949802386303	0
435	455	4.43776179754	0
435	482	4.537159546128	0
435	788	4.756503036958	0
435	871	4.823086424635	0
436	599	4.645362625446	0
436	643	4.647178625446	0
437	599	4.645362625446	7504
437	643	4.647178625446	1169072
437	643	4.647178625446	1169072
438	599	4.645362625446	7504
438	643	4.647178625446	7504
439	599	4.645362625446	0
439	643	4.647178625446	1161568
440	601	4.645362625446	0
440	644	4.647178625446	0
441	601	4.645362625446	7504
441	644	4.647178625446	1169072
441	644	4.647178625446	1169072
442	601	4.645362625446	7504
442	644	4.647178625446	7504
443	601	4.645362625446	0
443	644	4.647178625446	1161568
444	605	4.645362625446	44
444	649	4.647178625446	41
445	605	4.645362625446	44
445	649	4.647178625446	41
446	605	4.645362625446	1
446	605	4.645362625446	0
446	649	4.647178625446	1
446	649	4.647178625446	0
447	605	4.645362625446	44
447	649	4.647178625446	41
448	605	4.645362625446	0
448	649	4.647178625446	0
449	605	4.645362625446	51
449	649	4.647178625446	48
450	606	4.645362625446	44
450	650	4.647178625446	41
451	606	4.645362625446	44
451	650	4.647178625446	41
452	606	4.645362625446	1
452	606	4.645362625446	0
452	650	4.647178625446	1
452	650	4.647178625446	0
453	606	4.645362625446	44
453	650	4.647178625446	41
454	606	4.645362625446	0
454	650	4.647178625446	0
455	606	4.645362625446	51
455	650	4.647178625446	48
456	624	4.646270625446	51
456	653	4.648062625446	48
457	624	4.646270625446	44
457	653	4.648062625446	41
458	625	4.646270625446	51
458	654	4.648062625446	48
459	625	4.646270625446	44
459	654	4.648062625446	41
460	628	4.646270625446	1161340
460	629	4.646270625446	1161340
460	792	4.756535036958	1188906
460	800	4.756911036958	1189000
461	628	4.646270625446	0
461	629	4.646270625446	0
461	792	4.756535036958	0
461	800	4.756911036958	0
462	628	4.646270625446	1168845
462	628	4.646270625446	1168845
462	657	4.648062625446	1168845
463	628	4.646270625446	7504
463	657	4.648062625446	7504
464	628	4.646270625446	0
464	657	4.648062625446	0
464	657	4.648062625446	1
465	628	4.646270625446	7504
465	657	4.648062625446	7503
466	628	4.646270625446	1161341
466	657	4.648062625446	1161342
467	629	4.646270625446	1168845
467	629	4.646270625446	1168845
467	658	4.648062625446	1168845
468	629	4.646270625446	7504
468	658	4.648062625446	7504
469	629	4.646270625446	0
469	658	4.648062625446	0
469	658	4.648062625446	1
470	629	4.646270625446	7504
470	658	4.648062625446	7503
471	629	4.646270625446	1161341
471	658	4.648062625446	1161342
472	632	4.646270625446	44
472	664	4.648062625446	40
473	632	4.646270625446	44
473	664	4.648062625446	40
474	632	4.646270625446	1
474	632	4.646270625446	0
474	664	4.648062625446	1
474	664	4.648062625446	0
475	632	4.646270625446	44
475	664	4.648062625446	40
476	632	4.646270625446	0
476	664	4.648062625446	0
477	632	4.646270625446	51
477	664	4.648062625446	47
478	633	4.646270625446	44
478	666	4.648062625446	40
479	633	4.646270625446	44
479	666	4.648062625446	40
480	633	4.646270625446	1
480	633	4.646270625446	0
480	666	4.648062625446	1
480	666	4.648062625446	0
481	633	4.646270625446	44
481	666	4.648062625446	40
482	633	4.646270625446	0
482	666	4.648062625446	0
483	633	4.646270625446	51
483	666	4.648062625446	47
484	639	4.647178625446	51
484	673	4.648938625446	47
485	639	4.647178625446	44
485	673	4.648938625446	40
486	640	4.647178625446	51
486	674	4.648938625446	47
487	640	4.647178625446	44
487	674	4.648938625446	40
488	643	4.647178625446	1161567
488	677	4.648938625446	1161568
489	643	4.647178625446	1161341
489	677	4.648938625446	1161342
490	643	4.647178625446	7504
490	677	4.648938625446	7503
491	643	4.647178625446	1
491	677	4.648938625446	0
492	644	4.647178625446	1161567
492	678	4.648938625446	1161568
493	644	4.647178625446	1161341
493	678	4.648938625446	1161342
494	644	4.647178625446	7504
494	678	4.648938625446	7503
495	644	4.647178625446	1
495	678	4.648938625446	0
496	657	4.648062625446	1161341
497	657	4.648062625446	1161568
498	657	4.648062625446	0
499	657	4.648062625446	1072
500	657	4.648062625446	4294967295
501	657	4.648062625446	0
502	658	4.648062625446	1161341
503	658	4.648062625446	1161568
504	658	4.648062625446	0
505	658	4.648062625446	1072
506	658	4.648062625446	4294967295
507	658	4.648062625446	0
508	677	4.648938625446	0.00176
509	677	4.648938625446	0.00022
510	677	4.648938625446	0.65647
511	677	4.648938625446	2.6261
512	677	4.648938625446	1072
513	677	4.648938625446	4294967295
514	677	4.648938625446	0
515	678	4.648938625446	0.00176
516	678	4.648938625446	0.00022
517	678	4.648938625446	0.65647
518	678	4.648938625446	2.6261
519	678	4.648938625446	1072
520	678	4.648938625446	4294967295
521	678	4.648938625446	0
522	764	4.755627036958	0
522	807	4.757443036958	0
523	764	4.755627036958	7504
523	807	4.757443036958	1196638
523	807	4.757443036958	1196638
524	764	4.755627036958	7504
524	807	4.757443036958	7504
525	764	4.755627036958	0
525	807	4.757443036958	1189134
526	767	4.755627036958	44
526	810	4.757443036958	41
527	767	4.755627036958	44
527	810	4.757443036958	41
528	767	4.755627036958	1
528	767	4.755627036958	0
528	810	4.757443036958	1
528	810	4.757443036958	0
529	767	4.755627036958	44
529	810	4.757443036958	41
530	767	4.755627036958	0
530	810	4.757443036958	0
531	767	4.755627036958	51
531	810	4.757443036958	48
532	777	4.756003036958	0
532	813	4.757819036958	0
533	777	4.756003036958	7504
533	813	4.757819036958	1196732
533	813	4.757819036958	1196732
534	777	4.756003036958	7504
534	813	4.757819036958	7504
535	777	4.756003036958	0
535	813	4.757819036958	1189228
536	780	4.756003036958	44
536	816	4.757819036958	41
537	780	4.756003036958	44
537	816	4.757819036958	41
538	780	4.756003036958	1
538	780	4.756003036958	0
538	816	4.757819036958	1
538	816	4.757819036958	0
539	780	4.756003036958	44
539	816	4.757819036958	41
540	780	4.756003036958	0
540	816	4.757819036958	0
541	780	4.756003036958	51
541	816	4.757819036958	48
542	790	4.756535036958	51
542	819	4.758327036958	48
543	790	4.756535036958	44
543	819	4.758327036958	41
544	792	4.756535036958	1196411
544	792	4.756535036958	1196411
544	821	4.758327036958	1196411
545	792	4.756535036958	7504
545	821	4.758327036958	7504
546	792	4.756535036958	0
546	821	4.758327036958	0
546	821	4.758327036958	1
547	792	4.756535036958	7504
547	821	4.758327036958	7503
548	792	4.756535036958	1188907
548	821	4.758327036958	1188908
549	794	4.756535036958	44
549	825	4.758327036958	40
550	794	4.756535036958	44
550	825	4.758327036958	40
551	794	4.756535036958	1
551	794	4.756535036958	0
551	825	4.758327036958	1
551	825	4.758327036958	0
552	794	4.756535036958	44
552	825	4.758327036958	40
553	794	4.756535036958	0
553	825	4.758327036958	0
554	794	4.756535036958	51
554	825	4.758327036958	47
555	798	4.756911036958	51
555	828	4.758703036958	48
556	798	4.756911036958	44
556	828	4.758703036958	41
557	800	4.756911036958	1196505
557	800	4.756911036958	1196505
557	831	4.758703036958	1196505
558	800	4.756911036958	7504
558	831	4.758703036958	7504
559	800	4.756911036958	0
559	831	4.758703036958	0
559	831	4.758703036958	1
560	800	4.756911036958	7504
560	831	4.758703036958	7503
561	800	4.756911036958	1189001
561	831	4.758703036958	1189002
562	802	4.756911036958	44
562	835	4.758703036958	40
563	802	4.756911036958	44
563	835	4.758703036958	40
564	802	4.756911036958	1
564	802	4.756911036958	0
564	835	4.758703036958	1
564	835	4.758703036958	0
565	802	4.756911036958	44
565	835	4.758703036958	40
566	802	4.756911036958	0
566	835	4.758703036958	0
567	802	4.756911036958	51
567	835	4.758703036958	47
568	805	4.757443036958	51
568	839	4.759203036958	47
569	805	4.757443036958	44
569	839	4.759203036958	40
570	807	4.757443036958	1189133
570	841	4.759203036958	1189134
571	807	4.757443036958	1188907
571	841	4.759203036958	1188908
572	807	4.757443036958	7504
572	841	4.759203036958	7503
573	807	4.757443036958	1
573	841	4.759203036958	0
574	811	4.757819036958	51
574	842	4.759579036958	47
575	811	4.757819036958	44
575	842	4.759579036958	40
576	813	4.757819036958	1189227
576	844	4.759579036958	1189228
577	813	4.757819036958	1189001
577	844	4.759579036958	1189002
578	813	4.757819036958	7504
578	844	4.759579036958	7503
579	813	4.757819036958	1
579	844	4.759579036958	0
580	821	4.758327036958	1188907
581	821	4.758327036958	1189134
582	821	4.758327036958	0
583	821	4.758327036958	1072
584	821	4.758327036958	4294967295
585	821	4.758327036958	0
586	831	4.758703036958	1189001
587	831	4.758703036958	1189228
588	831	4.758703036958	0
589	831	4.758703036958	1072
590	831	4.758703036958	4294967295
591	831	4.758703036958	0
592	841	4.759203036958	0.00176
593	841	4.759203036958	0.00022
594	841	4.759203036958	0.65647
595	841	4.759203036958	2.6261
596	841	4.759203036958	1072
597	841	4.759203036958	4294967295
598	841	4.759203036958	0
599	844	4.759579036958	0.00176
600	844	4.759579036958	0.00022
601	844	4.759579036958	0.65647
602	844	4.759579036958	2.6261
603	844	4.759579036958	1072
604	844	4.759579036958	4294967295
605	844	4.759579036958	0

