file 182165 1641844695                                          
version 2
run J_3-0-20220110-20:58:12-5608
attr configname J_3
attr datetime 20220110-20:58:12
attr experiment J_3
attr inifile omnetpp.ini
attr iterationvars ""
attr iterationvarsf ""
attr measurement ""
attr network scenario
attr processid 5608
attr repetition 0
attr replication #0
attr resultdir results
attr runnumber 0
attr seedset 0
param **.client3.app[0].join 0.0
param **.ppp[*].ppp.queue.typename "\"DropTailQueue\""
param **.tcp.typename "\"Tcp\""
param **.tcp.nagleEnabled false
param **.cli*.app[*].nPar 5
param **.cli*.app[*].fPar 0
param **.numApps 1
param **.client0.app[*].typename "\"Node\""
param **.client0.app[0].localPort 1000
param **.client0.app[0].localPortL 1234
param **.client0.app[0].connectAddress "\"\""
param **.client0.app[0].connectPort 1234
param **.client1.app[*].typename "\"Node\""
param **.client1.app[0].localPort 1001
param **.client1.app[0].localPortL 1234
param **.client1.app[0].connectAddress "\"\""
param **.client1.app[0].connectPort 1234
param **.client2.app[*].typename "\"Node\""
param **.client2.app[0].localPort 1002
param **.client2.app[0].localPortL 1234
param **.client2.app[0].connectAddress "\"\""
param **.client2.app[0].connectPort 1234
param **.client3.app[*].typename "\"Node\""
param **.client3.app[0].localPort 1003
param **.client3.app[0].localPortL 1234
param **.client3.app[0].connectAddress "\"\""
param **.client3.app[0].connectPort 1234
param **.client4.app[*].typename "\"Node\""
param **.client4.app[0].localPort 1004
param **.client4.app[0].localPortL 1234
param **.client4.app[0].connectAddress "\"\""
param **.client4.app[0].connectPort 1234
param *.configurator.dumpAddresses true
param *.configurator.dumpTopology true
param *.configurator.dumpLinks true
param *.configurator.dumpRoutes true

vector 0 scenario.client0.ppp[0].ppp transmissionState:vector ETV
attr interpolationmode sample-hold
attr source transmissionStateChanged
attr title "tx state, vector"
vector 1 scenario.client0.ppp[1].ppp transmissionState:vector ETV
attr interpolationmode sample-hold
attr source transmissionStateChanged
attr title "tx state, vector"
vector 2 scenario.client0.ppp[2].ppp transmissionState:vector ETV
attr interpolationmode sample-hold
attr source transmissionStateChanged
attr title "tx state, vector"
vector 3 scenario.client0.ppp[3].ppp transmissionState:vector ETV
attr interpolationmode sample-hold
attr source transmissionStateChanged
attr title "tx state, vector"
vector 4 scenario.client1.ppp[0].ppp transmissionState:vector ETV
attr interpolationmode sample-hold
attr source transmissionStateChanged
attr title "tx state, vector"
vector 5 scenario.client1.ppp[1].ppp transmissionState:vector ETV
attr interpolationmode sample-hold
attr source transmissionStateChanged
attr title "tx state, vector"
vector 6 scenario.client1.ppp[2].ppp transmissionState:vector ETV
attr interpolationmode sample-hold
attr source transmissionStateChanged
attr title "tx state, vector"
vector 7 scenario.client1.ppp[3].ppp transmissionState:vector ETV
attr interpolationmode sample-hold
attr source transmissionStateChanged
attr title "tx state, vector"
vector 8 scenario.client2.ppp[0].ppp transmissionState:vector ETV
attr interpolationmode sample-hold
attr source transmissionStateChanged
attr title "tx state, vector"
vector 9 scenario.client2.ppp[1].ppp transmissionState:vector ETV
attr interpolationmode sample-hold
attr source transmissionStateChanged
attr title "tx state, vector"
vector 10 scenario.client2.ppp[2].ppp transmissionState:vector ETV
attr interpolationmode sample-hold
attr source transmissionStateChanged
attr title "tx state, vector"
vector 11 scenario.client2.ppp[3].ppp transmissionState:vector ETV
attr interpolationmode sample-hold
attr source transmissionStateChanged
attr title "tx state, vector"
vector 12 scenario.client3.ppp[0].ppp transmissionState:vector ETV
attr interpolationmode sample-hold
attr source transmissionStateChanged
attr title "tx state, vector"
vector 13 scenario.client3.ppp[1].ppp transmissionState:vector ETV
attr interpolationmode sample-hold
attr source transmissionStateChanged
attr title "tx state, vector"
vector 14 scenario.client3.ppp[2].ppp transmissionState:vector ETV
attr interpolationmode sample-hold
attr source transmissionStateChanged
attr title "tx state, vector"
vector 15 scenario.client3.ppp[3].ppp transmissionState:vector ETV
attr interpolationmode sample-hold
attr source transmissionStateChanged
attr title "tx state, vector"
vector 16 scenario.client4.ppp[0].ppp transmissionState:vector ETV
attr interpolationmode sample-hold
attr source transmissionStateChanged
attr title "tx state, vector"
vector 17 scenario.client4.ppp[1].ppp transmissionState:vector ETV
attr interpolationmode sample-hold
attr source transmissionStateChanged
attr title "tx state, vector"
vector 18 scenario.client4.ppp[2].ppp transmissionState:vector ETV
attr interpolationmode sample-hold
attr source transmissionStateChanged
attr title "tx state, vector"
vector 19 scenario.client4.ppp[3].ppp transmissionState:vector ETV
attr interpolationmode sample-hold
attr source transmissionStateChanged
attr title "tx state, vector"
vector 20 scenario.client3.tcp.conn-25 tcpRcvQueueBytes:vector ETV
attr interpolationmode sample-hold
vector 21 scenario.client3.tcp.conn-25 rcvAdv:vector ETV
attr interpolationmode sample-hold
vector 22 scenario.client3.tcp.conn-25 rcvWnd:vector ETV
attr interpolationmode sample-hold
vector 23 scenario.client3.tcp.conn-25 sndAck:vector ETV
attr interpolationmode sample-hold
vector 24 scenario.client3.ppp[2].ppp rcvdPkFromHl:vector(packetBytes) ETV
attr interpolationmode none
attr source packetReceivedFromUpper
attr title "packets received from higher layer, vector(packetBytes)"
vector 25 scenario.client3.ppp[2].ppp.queue packetPushed:vector(packetBytes) ETV
attr interpolationmode none
attr title "packet pushed, vector(packetBytes)"
vector 26 scenario.client3.ppp[2].ppp.queue queueLength:vector ETV
attr interpolationmode sample-hold
attr source "count(packetPushed) - count(packetPopped) - count(packetRemoved) - count(packetDropped)"
attr title "queue length, vector"
vector 27 scenario.client3.ppp[2].ppp.queue packetPopped:vector(packetBytes) ETV
attr interpolationmode none
attr title "packet popped, vector(packetBytes)"
vector 28 scenario.client3.ppp[2].ppp.queue queueingTime:vector ETV
attr interpolationmode none
attr source queueingTime(packetPopped)
attr title "queueing times, vector"
attr unit s
vector 29 scenario.client3.ppp[2].ppp txPk:vector(packetBytes) ETV
attr interpolationmode none
attr source packetSentToLower
attr title "packets transmitted, vector(packetBytes)"
vector 30 scenario.client2.ppp[2].ppp rxPkOk:vector(packetBytes) ETV
attr interpolationmode none
attr source rxPkOk
attr title "packets received OK, vector(packetBytes)"
vector 31 scenario.client2.ppp[2].ppp passedUpPk:vector(packetBytes) ETV
attr interpolationmode none
attr source packetSentToUpper
attr title "packets passed to higher layer, vector(packetBytes)"
vector 32 scenario.client2.tcp.conn-2 rcvSeq:vector ETV
attr interpolationmode sample-hold
vector 33 scenario.client2.tcp.conn-2 rcvAck:vector ETV
attr interpolationmode sample-hold
vector 34 scenario.client2.tcp.conn-26 rcvAdv:vector ETV
attr interpolationmode sample-hold
vector 35 scenario.client2.tcp.conn-26 sndWnd:vector ETV
attr interpolationmode sample-hold
vector 36 scenario.client2.tcp.conn-26 tcpRcvQueueBytes:vector ETV
attr interpolationmode sample-hold
vector 37 scenario.client2.tcp.conn-26 rcvWnd:vector ETV
attr interpolationmode sample-hold
vector 38 scenario.client2.tcp.conn-26 sndAck:vector ETV
attr interpolationmode sample-hold
vector 39 scenario.client2.ppp[2].ppp rcvdPkFromHl:vector(packetBytes) ETV
attr interpolationmode none
attr source packetReceivedFromUpper
attr title "packets received from higher layer, vector(packetBytes)"
vector 40 scenario.client2.ppp[2].ppp.queue packetPushed:vector(packetBytes) ETV
attr interpolationmode none
attr title "packet pushed, vector(packetBytes)"
vector 41 scenario.client2.ppp[2].ppp.queue queueLength:vector ETV
attr interpolationmode sample-hold
attr source "count(packetPushed) - count(packetPopped) - count(packetRemoved) - count(packetDropped)"
attr title "queue length, vector"
vector 42 scenario.client2.ppp[2].ppp.queue packetPopped:vector(packetBytes) ETV
attr interpolationmode none
attr title "packet popped, vector(packetBytes)"
vector 43 scenario.client2.ppp[2].ppp.queue queueingTime:vector ETV
attr interpolationmode none
attr source queueingTime(packetPopped)
attr title "queueing times, vector"
attr unit s
vector 44 scenario.client2.ppp[2].ppp txPk:vector(packetBytes) ETV
attr interpolationmode none
attr source packetSentToLower
attr title "packets transmitted, vector(packetBytes)"
vector 45 scenario.client3.ppp[2].ppp rxPkOk:vector(packetBytes) ETV
attr interpolationmode none
attr source rxPkOk
attr title "packets received OK, vector(packetBytes)"
vector 46 scenario.client3.ppp[2].ppp passedUpPk:vector(packetBytes) ETV
attr interpolationmode none
attr source packetSentToUpper
attr title "packets passed to higher layer, vector(packetBytes)"
vector 47 scenario.client3.tcp.conn-25 rcvSeq:vector ETV
attr interpolationmode sample-hold
vector 48 scenario.client3.tcp.conn-25 rcvAck:vector ETV
attr interpolationmode sample-hold
vector 49 scenario.client3.tcp.conn-25 sndWnd:vector ETV
attr interpolationmode sample-hold
vector 50 scenario.client3.tcp.conn-25 unacked:vector ETV
attr interpolationmode sample-hold
vector 51 scenario.client2.tcp.conn-26 rcvSeq:vector ETV
attr interpolationmode sample-hold
vector 52 scenario.client2.tcp.conn-26 rcvAck:vector ETV
attr interpolationmode sample-hold
vector 53 scenario.client2.tcp.conn-26 unacked:vector ETV
attr interpolationmode sample-hold
vector 54 scenario.client2.tcp.conn-26 cwnd:vector ETV
attr interpolationmode sample-hold
vector 55 scenario.client2.tcp.conn-26 ssthresh:vector ETV
attr interpolationmode sample-hold
vector 56 scenario.client2.tcp.conn-26 dupAcks:vector ETV
attr interpolationmode sample-hold
vector 57 scenario.client3.tcp.conn-25 rtt:vector ETV
attr interpolationmode sample-hold
vector 58 scenario.client3.tcp.conn-25 srtt:vector ETV
attr interpolationmode sample-hold
vector 59 scenario.client3.tcp.conn-25 rttvar:vector ETV
attr interpolationmode sample-hold
vector 60 scenario.client3.tcp.conn-25 rto:vector ETV
attr interpolationmode sample-hold
vector 61 scenario.client3.tcp.conn-25 cwnd:vector ETV
attr interpolationmode sample-hold
vector 62 scenario.client3.tcp.conn-25 ssthresh:vector ETV
attr interpolationmode sample-hold
vector 63 scenario.client3.tcp.conn-25 dupAcks:vector ETV
attr interpolationmode sample-hold
vector 64 scenario.client3.tcp.conn-27 tcpRcvQueueBytes:vector ETV
attr interpolationmode sample-hold
vector 65 scenario.client3.tcp.conn-27 rcvAdv:vector ETV
attr interpolationmode sample-hold
vector 66 scenario.client3.tcp.conn-27 rcvWnd:vector ETV
attr interpolationmode sample-hold
vector 67 scenario.client3.tcp.conn-27 sndAck:vector ETV
attr interpolationmode sample-hold
vector 68 scenario.client3.ppp[0].ppp rcvdPkFromHl:vector(packetBytes) ETV
attr interpolationmode none
attr source packetReceivedFromUpper
attr title "packets received from higher layer, vector(packetBytes)"
vector 69 scenario.client3.ppp[0].ppp.queue packetPushed:vector(packetBytes) ETV
attr interpolationmode none
attr title "packet pushed, vector(packetBytes)"
vector 70 scenario.client3.ppp[0].ppp.queue queueLength:vector ETV
attr interpolationmode sample-hold
attr source "count(packetPushed) - count(packetPopped) - count(packetRemoved) - count(packetDropped)"
attr title "queue length, vector"
vector 71 scenario.client3.ppp[0].ppp.queue packetPopped:vector(packetBytes) ETV
attr interpolationmode none
attr title "packet popped, vector(packetBytes)"
vector 72 scenario.client3.ppp[0].ppp.queue queueingTime:vector ETV
attr interpolationmode none
attr source queueingTime(packetPopped)
attr title "queueing times, vector"
attr unit s
vector 73 scenario.client3.ppp[0].ppp txPk:vector(packetBytes) ETV
attr interpolationmode none
attr source packetSentToLower
attr title "packets transmitted, vector(packetBytes)"
vector 74 scenario.client0.ppp[2].ppp rxPkOk:vector(packetBytes) ETV
attr interpolationmode none
attr source rxPkOk
attr title "packets received OK, vector(packetBytes)"
vector 75 scenario.client0.ppp[2].ppp passedUpPk:vector(packetBytes) ETV
attr interpolationmode none
attr source packetSentToUpper
attr title "packets passed to higher layer, vector(packetBytes)"
vector 76 scenario.client0.tcp.conn-0 rcvSeq:vector ETV
attr interpolationmode sample-hold
vector 77 scenario.client0.tcp.conn-0 rcvAck:vector ETV
attr interpolationmode sample-hold
vector 78 scenario.client0.tcp.conn-28 rcvAdv:vector ETV
attr interpolationmode sample-hold
vector 79 scenario.client0.tcp.conn-28 sndWnd:vector ETV
attr interpolationmode sample-hold
vector 80 scenario.client0.tcp.conn-28 tcpRcvQueueBytes:vector ETV
attr interpolationmode sample-hold
vector 81 scenario.client0.tcp.conn-28 rcvWnd:vector ETV
attr interpolationmode sample-hold
vector 82 scenario.client0.tcp.conn-28 sndAck:vector ETV
attr interpolationmode sample-hold
vector 83 scenario.client0.ppp[2].ppp rcvdPkFromHl:vector(packetBytes) ETV
attr interpolationmode none
attr source packetReceivedFromUpper
attr title "packets received from higher layer, vector(packetBytes)"
vector 84 scenario.client0.ppp[2].ppp.queue packetPushed:vector(packetBytes) ETV
attr interpolationmode none
attr title "packet pushed, vector(packetBytes)"
vector 85 scenario.client0.ppp[2].ppp.queue queueLength:vector ETV
attr interpolationmode sample-hold
attr source "count(packetPushed) - count(packetPopped) - count(packetRemoved) - count(packetDropped)"
attr title "queue length, vector"
vector 86 scenario.client0.ppp[2].ppp.queue packetPopped:vector(packetBytes) ETV
attr interpolationmode none
attr title "packet popped, vector(packetBytes)"
vector 87 scenario.client0.ppp[2].ppp.queue queueingTime:vector ETV
attr interpolationmode none
attr source queueingTime(packetPopped)
attr title "queueing times, vector"
attr unit s
vector 88 scenario.client0.ppp[2].ppp txPk:vector(packetBytes) ETV
attr interpolationmode none
attr source packetSentToLower
attr title "packets transmitted, vector(packetBytes)"
vector 89 scenario.client3.ppp[0].ppp rxPkOk:vector(packetBytes) ETV
attr interpolationmode none
attr source rxPkOk
attr title "packets received OK, vector(packetBytes)"
vector 90 scenario.client3.ppp[0].ppp passedUpPk:vector(packetBytes) ETV
attr interpolationmode none
attr source packetSentToUpper
attr title "packets passed to higher layer, vector(packetBytes)"
vector 91 scenario.client3.tcp.conn-27 rcvSeq:vector ETV
attr interpolationmode sample-hold
vector 92 scenario.client3.tcp.conn-27 rcvAck:vector ETV
attr interpolationmode sample-hold
vector 93 scenario.client3.tcp.conn-27 sndWnd:vector ETV
attr interpolationmode sample-hold
vector 94 scenario.client3.tcp.conn-27 unacked:vector ETV
attr interpolationmode sample-hold
vector 95 scenario.client0.tcp.conn-28 rcvSeq:vector ETV
attr interpolationmode sample-hold
vector 96 scenario.client0.tcp.conn-28 rcvAck:vector ETV
attr interpolationmode sample-hold
vector 97 scenario.client0.tcp.conn-28 unacked:vector ETV
attr interpolationmode sample-hold
vector 98 scenario.client0.tcp.conn-28 cwnd:vector ETV
attr interpolationmode sample-hold
vector 99 scenario.client0.tcp.conn-28 ssthresh:vector ETV
attr interpolationmode sample-hold
vector 100 scenario.client0.tcp.conn-28 dupAcks:vector ETV
attr interpolationmode sample-hold
vector 101 scenario.client3.tcp.conn-27 rtt:vector ETV
attr interpolationmode sample-hold
vector 102 scenario.client3.tcp.conn-27 srtt:vector ETV
attr interpolationmode sample-hold
vector 103 scenario.client3.tcp.conn-27 rttvar:vector ETV
attr interpolationmode sample-hold
vector 104 scenario.client3.tcp.conn-27 rto:vector ETV
attr interpolationmode sample-hold
vector 105 scenario.client3.tcp.conn-27 cwnd:vector ETV
attr interpolationmode sample-hold
vector 106 scenario.client3.tcp.conn-27 ssthresh:vector ETV
attr interpolationmode sample-hold
vector 107 scenario.client3.tcp.conn-27 dupAcks:vector ETV
attr interpolationmode sample-hold
vector 108 scenario.client0.tcp.conn-29 tcpRcvQueueBytes:vector ETV
attr interpolationmode sample-hold
vector 109 scenario.client0.tcp.conn-29 rcvAdv:vector ETV
attr interpolationmode sample-hold
vector 110 scenario.client0.tcp.conn-29 rcvWnd:vector ETV
attr interpolationmode sample-hold
vector 111 scenario.client0.tcp.conn-29 sndAck:vector ETV
attr interpolationmode sample-hold
vector 112 scenario.client3.tcp.conn-3 rcvSeq:vector ETV
attr interpolationmode sample-hold
vector 113 scenario.client3.tcp.conn-3 rcvAck:vector ETV
attr interpolationmode sample-hold
vector 114 scenario.client3.tcp.conn-30 rcvAdv:vector ETV
attr interpolationmode sample-hold
vector 115 scenario.client3.tcp.conn-30 sndWnd:vector ETV
attr interpolationmode sample-hold
vector 116 scenario.client3.tcp.conn-30 tcpRcvQueueBytes:vector ETV
attr interpolationmode sample-hold
vector 117 scenario.client3.tcp.conn-30 rcvWnd:vector ETV
attr interpolationmode sample-hold
vector 118 scenario.client3.tcp.conn-30 sndAck:vector ETV
attr interpolationmode sample-hold
vector 119 scenario.client0.tcp.conn-29 rcvSeq:vector ETV
attr interpolationmode sample-hold
vector 120 scenario.client0.tcp.conn-29 rcvAck:vector ETV
attr interpolationmode sample-hold
vector 121 scenario.client0.tcp.conn-29 sndWnd:vector ETV
attr interpolationmode sample-hold
vector 122 scenario.client0.tcp.conn-29 unacked:vector ETV
attr interpolationmode sample-hold
vector 123 scenario.client3.tcp.conn-30 rcvSeq:vector ETV
attr interpolationmode sample-hold
vector 124 scenario.client3.tcp.conn-30 rcvAck:vector ETV
attr interpolationmode sample-hold
vector 125 scenario.client3.tcp.conn-30 unacked:vector ETV
attr interpolationmode sample-hold
vector 126 scenario.client3.tcp.conn-30 cwnd:vector ETV
attr interpolationmode sample-hold
vector 127 scenario.client3.tcp.conn-30 ssthresh:vector ETV
attr interpolationmode sample-hold
vector 128 scenario.client3.tcp.conn-30 dupAcks:vector ETV
attr interpolationmode sample-hold
vector 129 scenario.client0.tcp.conn-29 rtt:vector ETV
attr interpolationmode sample-hold
vector 130 scenario.client0.tcp.conn-29 srtt:vector ETV
attr interpolationmode sample-hold
vector 131 scenario.client0.tcp.conn-29 rttvar:vector ETV
attr interpolationmode sample-hold
vector 132 scenario.client0.tcp.conn-29 rto:vector ETV
attr interpolationmode sample-hold
vector 133 scenario.client0.tcp.conn-29 cwnd:vector ETV
attr interpolationmode sample-hold
vector 134 scenario.client0.tcp.conn-29 ssthresh:vector ETV
attr interpolationmode sample-hold
vector 135 scenario.client0.tcp.conn-29 dupAcks:vector ETV
attr interpolationmode sample-hold
vector 136 scenario.client3.tcp.conn-31 tcpRcvQueueBytes:vector ETV
attr interpolationmode sample-hold
vector 137 scenario.client3.tcp.conn-31 rcvAdv:vector ETV
attr interpolationmode sample-hold
vector 138 scenario.client3.tcp.conn-31 rcvWnd:vector ETV
attr interpolationmode sample-hold
vector 139 scenario.client3.tcp.conn-31 sndAck:vector ETV
attr interpolationmode sample-hold
vector 140 scenario.client3.ppp[1].ppp rcvdPkFromHl:vector(packetBytes) ETV
attr interpolationmode none
attr source packetReceivedFromUpper
attr title "packets received from higher layer, vector(packetBytes)"
vector 141 scenario.client3.ppp[1].ppp.queue packetPushed:vector(packetBytes) ETV
attr interpolationmode none
attr title "packet pushed, vector(packetBytes)"
vector 142 scenario.client3.ppp[1].ppp.queue queueLength:vector ETV
attr interpolationmode sample-hold
attr source "count(packetPushed) - count(packetPopped) - count(packetRemoved) - count(packetDropped)"
attr title "queue length, vector"
vector 143 scenario.client3.ppp[1].ppp.queue packetPopped:vector(packetBytes) ETV
attr interpolationmode none
attr title "packet popped, vector(packetBytes)"
vector 144 scenario.client3.ppp[1].ppp.queue queueingTime:vector ETV
attr interpolationmode none
attr source queueingTime(packetPopped)
attr title "queueing times, vector"
attr unit s
vector 145 scenario.client3.ppp[1].ppp txPk:vector(packetBytes) ETV
attr interpolationmode none
attr source packetSentToLower
attr title "packets transmitted, vector(packetBytes)"
vector 146 scenario.client1.ppp[2].ppp rxPkOk:vector(packetBytes) ETV
attr interpolationmode none
attr source rxPkOk
attr title "packets received OK, vector(packetBytes)"
vector 147 scenario.client1.ppp[2].ppp passedUpPk:vector(packetBytes) ETV
attr interpolationmode none
attr source packetSentToUpper
attr title "packets passed to higher layer, vector(packetBytes)"
vector 148 scenario.client1.tcp.conn-1 rcvSeq:vector ETV
attr interpolationmode sample-hold
vector 149 scenario.client1.tcp.conn-1 rcvAck:vector ETV
attr interpolationmode sample-hold
vector 150 scenario.client1.tcp.conn-32 rcvAdv:vector ETV
attr interpolationmode sample-hold
vector 151 scenario.client1.tcp.conn-32 sndWnd:vector ETV
attr interpolationmode sample-hold
vector 152 scenario.client1.tcp.conn-32 tcpRcvQueueBytes:vector ETV
attr interpolationmode sample-hold
vector 153 scenario.client1.tcp.conn-32 rcvWnd:vector ETV
attr interpolationmode sample-hold
vector 154 scenario.client1.tcp.conn-32 sndAck:vector ETV
attr interpolationmode sample-hold
vector 155 scenario.client1.ppp[2].ppp rcvdPkFromHl:vector(packetBytes) ETV
attr interpolationmode none
attr source packetReceivedFromUpper
attr title "packets received from higher layer, vector(packetBytes)"
vector 156 scenario.client1.ppp[2].ppp.queue packetPushed:vector(packetBytes) ETV
attr interpolationmode none
attr title "packet pushed, vector(packetBytes)"
vector 157 scenario.client1.ppp[2].ppp.queue queueLength:vector ETV
attr interpolationmode sample-hold
attr source "count(packetPushed) - count(packetPopped) - count(packetRemoved) - count(packetDropped)"
attr title "queue length, vector"
vector 158 scenario.client1.ppp[2].ppp.queue packetPopped:vector(packetBytes) ETV
attr interpolationmode none
attr title "packet popped, vector(packetBytes)"
vector 159 scenario.client1.ppp[2].ppp.queue queueingTime:vector ETV
attr interpolationmode none
attr source queueingTime(packetPopped)
attr title "queueing times, vector"
attr unit s
vector 160 scenario.client1.ppp[2].ppp txPk:vector(packetBytes) ETV
attr interpolationmode none
attr source packetSentToLower
attr title "packets transmitted, vector(packetBytes)"
vector 161 scenario.client3.ppp[1].ppp rxPkOk:vector(packetBytes) ETV
attr interpolationmode none
attr source rxPkOk
attr title "packets received OK, vector(packetBytes)"
vector 162 scenario.client3.ppp[1].ppp passedUpPk:vector(packetBytes) ETV
attr interpolationmode none
attr source packetSentToUpper
attr title "packets passed to higher layer, vector(packetBytes)"
vector 163 scenario.client3.tcp.conn-31 rcvSeq:vector ETV
attr interpolationmode sample-hold
vector 164 scenario.client3.tcp.conn-31 rcvAck:vector ETV
attr interpolationmode sample-hold
vector 165 scenario.client3.tcp.conn-31 sndWnd:vector ETV
attr interpolationmode sample-hold
vector 166 scenario.client3.tcp.conn-31 unacked:vector ETV
attr interpolationmode sample-hold
vector 167 scenario.client1.tcp.conn-32 rcvSeq:vector ETV
attr interpolationmode sample-hold
vector 168 scenario.client1.tcp.conn-32 rcvAck:vector ETV
attr interpolationmode sample-hold
vector 169 scenario.client1.tcp.conn-32 unacked:vector ETV
attr interpolationmode sample-hold
vector 170 scenario.client1.tcp.conn-32 cwnd:vector ETV
attr interpolationmode sample-hold
vector 171 scenario.client1.tcp.conn-32 ssthresh:vector ETV
attr interpolationmode sample-hold
vector 172 scenario.client1.tcp.conn-32 dupAcks:vector ETV
attr interpolationmode sample-hold
vector 173 scenario.client3.tcp.conn-31 rtt:vector ETV
attr interpolationmode sample-hold
vector 174 scenario.client3.tcp.conn-31 srtt:vector ETV
attr interpolationmode sample-hold
vector 175 scenario.client3.tcp.conn-31 rttvar:vector ETV
attr interpolationmode sample-hold
vector 176 scenario.client3.tcp.conn-31 rto:vector ETV
attr interpolationmode sample-hold
vector 177 scenario.client3.tcp.conn-31 cwnd:vector ETV
attr interpolationmode sample-hold
vector 178 scenario.client3.tcp.conn-31 ssthresh:vector ETV
attr interpolationmode sample-hold
vector 179 scenario.client3.tcp.conn-31 dupAcks:vector ETV
attr interpolationmode sample-hold
vector 180 scenario.client2.tcp.conn-33 tcpRcvQueueBytes:vector ETV
attr interpolationmode sample-hold
vector 181 scenario.client2.tcp.conn-33 rcvAdv:vector ETV
attr interpolationmode sample-hold
vector 182 scenario.client2.tcp.conn-33 rcvWnd:vector ETV
attr interpolationmode sample-hold
vector 183 scenario.client2.tcp.conn-33 sndAck:vector ETV
attr interpolationmode sample-hold
vector 184 scenario.client3.tcp.conn-34 rcvAdv:vector ETV
attr interpolationmode sample-hold
vector 185 scenario.client3.tcp.conn-34 sndWnd:vector ETV
attr interpolationmode sample-hold
vector 186 scenario.client3.tcp.conn-34 tcpRcvQueueBytes:vector ETV
attr interpolationmode sample-hold
vector 187 scenario.client3.tcp.conn-34 rcvWnd:vector ETV
attr interpolationmode sample-hold
vector 188 scenario.client3.tcp.conn-34 sndAck:vector ETV
attr interpolationmode sample-hold
vector 189 scenario.client2.tcp.conn-33 rcvSeq:vector ETV
attr interpolationmode sample-hold
vector 190 scenario.client2.tcp.conn-33 rcvAck:vector ETV
attr interpolationmode sample-hold
vector 191 scenario.client2.tcp.conn-33 sndWnd:vector ETV
attr interpolationmode sample-hold
vector 192 scenario.client2.tcp.conn-33 unacked:vector ETV
attr interpolationmode sample-hold
vector 193 scenario.client3.tcp.conn-34 rcvSeq:vector ETV
attr interpolationmode sample-hold
vector 194 scenario.client3.tcp.conn-34 rcvAck:vector ETV
attr interpolationmode sample-hold
vector 195 scenario.client3.tcp.conn-34 unacked:vector ETV
attr interpolationmode sample-hold
vector 196 scenario.client3.tcp.conn-34 cwnd:vector ETV
attr interpolationmode sample-hold
vector 197 scenario.client3.tcp.conn-34 ssthresh:vector ETV
attr interpolationmode sample-hold
vector 198 scenario.client3.tcp.conn-34 dupAcks:vector ETV
attr interpolationmode sample-hold
vector 199 scenario.client2.tcp.conn-33 rtt:vector ETV
attr interpolationmode sample-hold
vector 200 scenario.client2.tcp.conn-33 srtt:vector ETV
attr interpolationmode sample-hold
vector 201 scenario.client2.tcp.conn-33 rttvar:vector ETV
attr interpolationmode sample-hold
vector 202 scenario.client2.tcp.conn-33 rto:vector ETV
attr interpolationmode sample-hold
vector 203 scenario.client2.tcp.conn-33 cwnd:vector ETV
attr interpolationmode sample-hold
vector 204 scenario.client2.tcp.conn-33 ssthresh:vector ETV
attr interpolationmode sample-hold
vector 205 scenario.client2.tcp.conn-33 dupAcks:vector ETV
attr interpolationmode sample-hold
vector 206 scenario.client1.tcp.conn-35 tcpRcvQueueBytes:vector ETV
attr interpolationmode sample-hold
vector 207 scenario.client1.tcp.conn-35 rcvAdv:vector ETV
attr interpolationmode sample-hold
vector 208 scenario.client1.tcp.conn-35 rcvWnd:vector ETV
attr interpolationmode sample-hold
vector 209 scenario.client1.tcp.conn-35 sndAck:vector ETV
attr interpolationmode sample-hold
vector 210 scenario.client3.tcp.conn-36 rcvAdv:vector ETV
attr interpolationmode sample-hold
vector 211 scenario.client3.tcp.conn-36 sndWnd:vector ETV
attr interpolationmode sample-hold
vector 212 scenario.client3.tcp.conn-36 tcpRcvQueueBytes:vector ETV
attr interpolationmode sample-hold
vector 213 scenario.client3.tcp.conn-36 rcvWnd:vector ETV
attr interpolationmode sample-hold
vector 214 scenario.client3.tcp.conn-36 sndAck:vector ETV
attr interpolationmode sample-hold
vector 215 scenario.client1.tcp.conn-35 rcvSeq:vector ETV
attr interpolationmode sample-hold
vector 216 scenario.client1.tcp.conn-35 rcvAck:vector ETV
attr interpolationmode sample-hold
vector 217 scenario.client1.tcp.conn-35 sndWnd:vector ETV
attr interpolationmode sample-hold
vector 218 scenario.client1.tcp.conn-35 unacked:vector ETV
attr interpolationmode sample-hold
vector 219 scenario.client3.tcp.conn-36 rcvSeq:vector ETV
attr interpolationmode sample-hold
vector 220 scenario.client3.tcp.conn-36 rcvAck:vector ETV
attr interpolationmode sample-hold
vector 221 scenario.client3.tcp.conn-36 unacked:vector ETV
attr interpolationmode sample-hold
vector 222 scenario.client3.tcp.conn-36 cwnd:vector ETV
attr interpolationmode sample-hold
vector 223 scenario.client3.tcp.conn-36 ssthresh:vector ETV
attr interpolationmode sample-hold
vector 224 scenario.client3.tcp.conn-36 dupAcks:vector ETV
attr interpolationmode sample-hold
vector 225 scenario.client1.tcp.conn-35 rtt:vector ETV
attr interpolationmode sample-hold
vector 226 scenario.client1.tcp.conn-35 srtt:vector ETV
attr interpolationmode sample-hold
vector 227 scenario.client1.tcp.conn-35 rttvar:vector ETV
attr interpolationmode sample-hold
vector 228 scenario.client1.tcp.conn-35 rto:vector ETV
attr interpolationmode sample-hold
vector 229 scenario.client1.tcp.conn-35 cwnd:vector ETV
attr interpolationmode sample-hold
vector 230 scenario.client1.tcp.conn-35 ssthresh:vector ETV
attr interpolationmode sample-hold
vector 231 scenario.client1.tcp.conn-35 dupAcks:vector ETV
attr interpolationmode sample-hold
vector 232 scenario.client2.tcp.conn-37 tcpRcvQueueBytes:vector ETV
attr interpolationmode sample-hold
vector 233 scenario.client2.tcp.conn-37 rcvAdv:vector ETV
attr interpolationmode sample-hold
vector 234 scenario.client2.tcp.conn-37 rcvWnd:vector ETV
attr interpolationmode sample-hold
vector 235 scenario.client2.tcp.conn-37 sndAck:vector ETV
attr interpolationmode sample-hold
vector 236 scenario.client2.ppp[1].ppp rcvdPkFromHl:vector(packetBytes) ETV
attr interpolationmode none
attr source packetReceivedFromUpper
attr title "packets received from higher layer, vector(packetBytes)"
vector 237 scenario.client2.ppp[1].ppp.queue packetPushed:vector(packetBytes) ETV
attr interpolationmode none
attr title "packet pushed, vector(packetBytes)"
vector 238 scenario.client2.ppp[1].ppp.queue queueLength:vector ETV
attr interpolationmode sample-hold
attr source "count(packetPushed) - count(packetPopped) - count(packetRemoved) - count(packetDropped)"
attr title "queue length, vector"
vector 239 scenario.client2.ppp[1].ppp.queue packetPopped:vector(packetBytes) ETV
attr interpolationmode none
attr title "packet popped, vector(packetBytes)"
vector 240 scenario.client2.ppp[1].ppp.queue queueingTime:vector ETV
attr interpolationmode none
attr source queueingTime(packetPopped)
attr title "queueing times, vector"
attr unit s
vector 241 scenario.client2.ppp[1].ppp txPk:vector(packetBytes) ETV
attr interpolationmode none
attr source packetSentToLower
attr title "packets transmitted, vector(packetBytes)"
vector 242 scenario.client1.ppp[1].ppp rxPkOk:vector(packetBytes) ETV
attr interpolationmode none
attr source rxPkOk
attr title "packets received OK, vector(packetBytes)"
vector 243 scenario.client1.ppp[1].ppp passedUpPk:vector(packetBytes) ETV
attr interpolationmode none
attr source packetSentToUpper
attr title "packets passed to higher layer, vector(packetBytes)"
vector 244 scenario.client1.tcp.conn-38 rcvAdv:vector ETV
attr interpolationmode sample-hold
vector 245 scenario.client1.tcp.conn-38 sndWnd:vector ETV
attr interpolationmode sample-hold
vector 246 scenario.client1.tcp.conn-38 tcpRcvQueueBytes:vector ETV
attr interpolationmode sample-hold
vector 247 scenario.client1.tcp.conn-38 rcvWnd:vector ETV
attr interpolationmode sample-hold
vector 248 scenario.client1.tcp.conn-38 sndAck:vector ETV
attr interpolationmode sample-hold
vector 249 scenario.client1.ppp[1].ppp rcvdPkFromHl:vector(packetBytes) ETV
attr interpolationmode none
attr source packetReceivedFromUpper
attr title "packets received from higher layer, vector(packetBytes)"
vector 250 scenario.client1.ppp[1].ppp.queue packetPushed:vector(packetBytes) ETV
attr interpolationmode none
attr title "packet pushed, vector(packetBytes)"
vector 251 scenario.client1.ppp[1].ppp.queue queueLength:vector ETV
attr interpolationmode sample-hold
attr source "count(packetPushed) - count(packetPopped) - count(packetRemoved) - count(packetDropped)"
attr title "queue length, vector"
vector 252 scenario.client1.ppp[1].ppp.queue packetPopped:vector(packetBytes) ETV
attr interpolationmode none
attr title "packet popped, vector(packetBytes)"
vector 253 scenario.client1.ppp[1].ppp.queue queueingTime:vector ETV
attr interpolationmode none
attr source queueingTime(packetPopped)
attr title "queueing times, vector"
attr unit s
vector 254 scenario.client1.ppp[1].ppp txPk:vector(packetBytes) ETV
attr interpolationmode none
attr source packetSentToLower
attr title "packets transmitted, vector(packetBytes)"
vector 255 scenario.client2.ppp[1].ppp rxPkOk:vector(packetBytes) ETV
attr interpolationmode none
attr source rxPkOk
attr title "packets received OK, vector(packetBytes)"
vector 256 scenario.client2.ppp[1].ppp passedUpPk:vector(packetBytes) ETV
attr interpolationmode none
attr source packetSentToUpper
attr title "packets passed to higher layer, vector(packetBytes)"
vector 257 scenario.client2.tcp.conn-37 rcvSeq:vector ETV
attr interpolationmode sample-hold
vector 258 scenario.client2.tcp.conn-37 rcvAck:vector ETV
attr interpolationmode sample-hold
vector 259 scenario.client2.tcp.conn-37 sndWnd:vector ETV
attr interpolationmode sample-hold
vector 260 scenario.client2.tcp.conn-37 unacked:vector ETV
attr interpolationmode sample-hold
vector 261 scenario.client1.tcp.conn-38 rcvSeq:vector ETV
attr interpolationmode sample-hold
vector 262 scenario.client1.tcp.conn-38 rcvAck:vector ETV
attr interpolationmode sample-hold
vector 263 scenario.client1.tcp.conn-38 unacked:vector ETV
attr interpolationmode sample-hold
vector 264 scenario.client1.tcp.conn-38 cwnd:vector ETV
attr interpolationmode sample-hold
vector 265 scenario.client1.tcp.conn-38 ssthresh:vector ETV
attr interpolationmode sample-hold
vector 266 scenario.client1.tcp.conn-38 dupAcks:vector ETV
attr interpolationmode sample-hold
vector 267 scenario.client2.tcp.conn-37 rtt:vector ETV
attr interpolationmode sample-hold
vector 268 scenario.client2.tcp.conn-37 srtt:vector ETV
attr interpolationmode sample-hold
vector 269 scenario.client2.tcp.conn-37 rttvar:vector ETV
attr interpolationmode sample-hold
vector 270 scenario.client2.tcp.conn-37 rto:vector ETV
attr interpolationmode sample-hold
vector 271 scenario.client2.tcp.conn-37 cwnd:vector ETV
attr interpolationmode sample-hold
vector 272 scenario.client2.tcp.conn-37 ssthresh:vector ETV
attr interpolationmode sample-hold
vector 273 scenario.client2.tcp.conn-37 dupAcks:vector ETV
attr interpolationmode sample-hold
vector 274 scenario.client1.tcp.conn-39 tcpRcvQueueBytes:vector ETV
attr interpolationmode sample-hold
vector 275 scenario.client1.tcp.conn-39 rcvAdv:vector ETV
attr interpolationmode sample-hold
vector 276 scenario.client1.tcp.conn-39 rcvWnd:vector ETV
attr interpolationmode sample-hold
vector 277 scenario.client1.tcp.conn-39 sndAck:vector ETV
attr interpolationmode sample-hold
vector 278 scenario.client1.ppp[0].ppp rcvdPkFromHl:vector(packetBytes) ETV
attr interpolationmode none
attr source packetReceivedFromUpper
attr title "packets received from higher layer, vector(packetBytes)"
vector 279 scenario.client1.ppp[0].ppp.queue packetPushed:vector(packetBytes) ETV
attr interpolationmode none
attr title "packet pushed, vector(packetBytes)"
vector 280 scenario.client1.ppp[0].ppp.queue queueLength:vector ETV
attr interpolationmode sample-hold
attr source "count(packetPushed) - count(packetPopped) - count(packetRemoved) - count(packetDropped)"
attr title "queue length, vector"
vector 281 scenario.client1.ppp[0].ppp.queue packetPopped:vector(packetBytes) ETV
attr interpolationmode none
attr title "packet popped, vector(packetBytes)"
vector 282 scenario.client1.ppp[0].ppp.queue queueingTime:vector ETV
attr interpolationmode none
attr source queueingTime(packetPopped)
attr title "queueing times, vector"
attr unit s
vector 283 scenario.client1.ppp[0].ppp txPk:vector(packetBytes) ETV
attr interpolationmode none
attr source packetSentToLower
attr title "packets transmitted, vector(packetBytes)"
vector 284 scenario.client0.ppp[0].ppp rxPkOk:vector(packetBytes) ETV
attr interpolationmode none
attr source rxPkOk
attr title "packets received OK, vector(packetBytes)"
vector 285 scenario.client0.ppp[0].ppp passedUpPk:vector(packetBytes) ETV
attr interpolationmode none
attr source packetSentToUpper
attr title "packets passed to higher layer, vector(packetBytes)"
vector 286 scenario.client0.tcp.conn-40 rcvAdv:vector ETV
attr interpolationmode sample-hold
vector 287 scenario.client0.tcp.conn-40 sndWnd:vector ETV
attr interpolationmode sample-hold
vector 288 scenario.client0.tcp.conn-40 tcpRcvQueueBytes:vector ETV
attr interpolationmode sample-hold
vector 289 scenario.client0.tcp.conn-40 rcvWnd:vector ETV
attr interpolationmode sample-hold
vector 290 scenario.client0.tcp.conn-40 sndAck:vector ETV
attr interpolationmode sample-hold
vector 291 scenario.client0.ppp[0].ppp rcvdPkFromHl:vector(packetBytes) ETV
attr interpolationmode none
attr source packetReceivedFromUpper
attr title "packets received from higher layer, vector(packetBytes)"
vector 292 scenario.client0.ppp[0].ppp.queue packetPushed:vector(packetBytes) ETV
attr interpolationmode none
attr title "packet pushed, vector(packetBytes)"
vector 293 scenario.client0.ppp[0].ppp.queue queueLength:vector ETV
attr interpolationmode sample-hold
attr source "count(packetPushed) - count(packetPopped) - count(packetRemoved) - count(packetDropped)"
attr title "queue length, vector"
vector 294 scenario.client0.ppp[0].ppp.queue packetPopped:vector(packetBytes) ETV
attr interpolationmode none
attr title "packet popped, vector(packetBytes)"
vector 295 scenario.client0.ppp[0].ppp.queue queueingTime:vector ETV
attr interpolationmode none
attr source queueingTime(packetPopped)
attr title "queueing times, vector"
attr unit s
vector 296 scenario.client0.ppp[0].ppp txPk:vector(packetBytes) ETV
attr interpolationmode none
attr source packetSentToLower
attr title "packets transmitted, vector(packetBytes)"
vector 297 scenario.client1.ppp[0].ppp rxPkOk:vector(packetBytes) ETV
attr interpolationmode none
attr source rxPkOk
attr title "packets received OK, vector(packetBytes)"
vector 298 scenario.client1.ppp[0].ppp passedUpPk:vector(packetBytes) ETV
attr interpolationmode none
attr source packetSentToUpper
attr title "packets passed to higher layer, vector(packetBytes)"
vector 299 scenario.client1.tcp.conn-39 rcvSeq:vector ETV
attr interpolationmode sample-hold
vector 300 scenario.client1.tcp.conn-39 rcvAck:vector ETV
attr interpolationmode sample-hold
vector 301 scenario.client1.tcp.conn-39 sndWnd:vector ETV
attr interpolationmode sample-hold
vector 302 scenario.client1.tcp.conn-39 unacked:vector ETV
attr interpolationmode sample-hold
vector 303 scenario.client0.tcp.conn-40 rcvSeq:vector ETV
attr interpolationmode sample-hold
vector 304 scenario.client0.tcp.conn-40 rcvAck:vector ETV
attr interpolationmode sample-hold
vector 305 scenario.client0.tcp.conn-40 unacked:vector ETV
attr interpolationmode sample-hold
vector 306 scenario.client0.tcp.conn-40 cwnd:vector ETV
attr interpolationmode sample-hold
vector 307 scenario.client0.tcp.conn-40 ssthresh:vector ETV
attr interpolationmode sample-hold
vector 308 scenario.client0.tcp.conn-40 dupAcks:vector ETV
attr interpolationmode sample-hold
vector 309 scenario.client1.tcp.conn-39 rtt:vector ETV
attr interpolationmode sample-hold
vector 310 scenario.client1.tcp.conn-39 srtt:vector ETV
attr interpolationmode sample-hold
vector 311 scenario.client1.tcp.conn-39 rttvar:vector ETV
attr interpolationmode sample-hold
vector 312 scenario.client1.tcp.conn-39 rto:vector ETV
attr interpolationmode sample-hold
vector 313 scenario.client1.tcp.conn-39 cwnd:vector ETV
attr interpolationmode sample-hold
vector 314 scenario.client1.tcp.conn-39 ssthresh:vector ETV
attr interpolationmode sample-hold
vector 315 scenario.client1.tcp.conn-39 dupAcks:vector ETV
attr interpolationmode sample-hold
vector 316 scenario.client0.tcp.conn-41 tcpRcvQueueBytes:vector ETV
attr interpolationmode sample-hold
vector 317 scenario.client0.tcp.conn-41 rcvAdv:vector ETV
attr interpolationmode sample-hold
vector 318 scenario.client0.tcp.conn-41 rcvWnd:vector ETV
attr interpolationmode sample-hold
vector 319 scenario.client0.tcp.conn-41 sndAck:vector ETV
attr interpolationmode sample-hold
vector 320 scenario.client0.ppp[1].ppp rcvdPkFromHl:vector(packetBytes) ETV
attr interpolationmode none
attr source packetReceivedFromUpper
attr title "packets received from higher layer, vector(packetBytes)"
vector 321 scenario.client0.ppp[1].ppp.queue packetPushed:vector(packetBytes) ETV
attr interpolationmode none
attr title "packet pushed, vector(packetBytes)"
vector 322 scenario.client0.ppp[1].ppp.queue queueLength:vector ETV
attr interpolationmode sample-hold
attr source "count(packetPushed) - count(packetPopped) - count(packetRemoved) - count(packetDropped)"
attr title "queue length, vector"
vector 323 scenario.client0.ppp[1].ppp.queue packetPopped:vector(packetBytes) ETV
attr interpolationmode none
attr title "packet popped, vector(packetBytes)"
vector 324 scenario.client0.ppp[1].ppp.queue queueingTime:vector ETV
attr interpolationmode none
attr source queueingTime(packetPopped)
attr title "queueing times, vector"
attr unit s
vector 325 scenario.client0.ppp[1].ppp txPk:vector(packetBytes) ETV
attr interpolationmode none
attr source packetSentToLower
attr title "packets transmitted, vector(packetBytes)"
vector 326 scenario.client2.ppp[0].ppp rxPkOk:vector(packetBytes) ETV
attr interpolationmode none
attr source rxPkOk
attr title "packets received OK, vector(packetBytes)"
vector 327 scenario.client2.ppp[0].ppp passedUpPk:vector(packetBytes) ETV
attr interpolationmode none
attr source packetSentToUpper
attr title "packets passed to higher layer, vector(packetBytes)"
vector 328 scenario.client2.tcp.conn-42 rcvAdv:vector ETV
attr interpolationmode sample-hold
vector 329 scenario.client2.tcp.conn-42 sndWnd:vector ETV
attr interpolationmode sample-hold
vector 330 scenario.client2.tcp.conn-42 tcpRcvQueueBytes:vector ETV
attr interpolationmode sample-hold
vector 331 scenario.client2.tcp.conn-42 rcvWnd:vector ETV
attr interpolationmode sample-hold
vector 332 scenario.client2.tcp.conn-42 sndAck:vector ETV
attr interpolationmode sample-hold
vector 333 scenario.client2.ppp[0].ppp rcvdPkFromHl:vector(packetBytes) ETV
attr interpolationmode none
attr source packetReceivedFromUpper
attr title "packets received from higher layer, vector(packetBytes)"
vector 334 scenario.client2.ppp[0].ppp.queue packetPushed:vector(packetBytes) ETV
attr interpolationmode none
attr title "packet pushed, vector(packetBytes)"
vector 335 scenario.client2.ppp[0].ppp.queue queueLength:vector ETV
attr interpolationmode sample-hold
attr source "count(packetPushed) - count(packetPopped) - count(packetRemoved) - count(packetDropped)"
attr title "queue length, vector"
vector 336 scenario.client2.ppp[0].ppp.queue packetPopped:vector(packetBytes) ETV
attr interpolationmode none
attr title "packet popped, vector(packetBytes)"
vector 337 scenario.client2.ppp[0].ppp.queue queueingTime:vector ETV
attr interpolationmode none
attr source queueingTime(packetPopped)
attr title "queueing times, vector"
attr unit s
vector 338 scenario.client2.ppp[0].ppp txPk:vector(packetBytes) ETV
attr interpolationmode none
attr source packetSentToLower
attr title "packets transmitted, vector(packetBytes)"
vector 339 scenario.client0.ppp[1].ppp rxPkOk:vector(packetBytes) ETV
attr interpolationmode none
attr source rxPkOk
attr title "packets received OK, vector(packetBytes)"
vector 340 scenario.client0.ppp[1].ppp passedUpPk:vector(packetBytes) ETV
attr interpolationmode none
attr source packetSentToUpper
attr title "packets passed to higher layer, vector(packetBytes)"
vector 341 scenario.client0.tcp.conn-41 rcvSeq:vector ETV
attr interpolationmode sample-hold
vector 342 scenario.client0.tcp.conn-41 rcvAck:vector ETV
attr interpolationmode sample-hold
vector 343 scenario.client0.tcp.conn-41 sndWnd:vector ETV
attr interpolationmode sample-hold
vector 344 scenario.client0.tcp.conn-41 unacked:vector ETV
attr interpolationmode sample-hold
vector 345 scenario.client2.tcp.conn-42 rcvSeq:vector ETV
attr interpolationmode sample-hold
vector 346 scenario.client2.tcp.conn-42 rcvAck:vector ETV
attr interpolationmode sample-hold
vector 347 scenario.client2.tcp.conn-42 unacked:vector ETV
attr interpolationmode sample-hold
vector 348 scenario.client2.tcp.conn-42 cwnd:vector ETV
attr interpolationmode sample-hold
vector 349 scenario.client2.tcp.conn-42 ssthresh:vector ETV
attr interpolationmode sample-hold
vector 350 scenario.client2.tcp.conn-42 dupAcks:vector ETV
attr interpolationmode sample-hold
vector 351 scenario.client0.tcp.conn-41 rtt:vector ETV
attr interpolationmode sample-hold
vector 352 scenario.client0.tcp.conn-41 srtt:vector ETV
attr interpolationmode sample-hold
vector 353 scenario.client0.tcp.conn-41 rttvar:vector ETV
attr interpolationmode sample-hold
vector 354 scenario.client0.tcp.conn-41 rto:vector ETV
attr interpolationmode sample-hold
vector 355 scenario.client0.tcp.conn-41 cwnd:vector ETV
attr interpolationmode sample-hold
vector 356 scenario.client0.tcp.conn-41 ssthresh:vector ETV
attr interpolationmode sample-hold
vector 357 scenario.client0.tcp.conn-41 dupAcks:vector ETV
attr interpolationmode sample-hold
vector 358 scenario.client2.tcp.conn-43 tcpRcvQueueBytes:vector ETV
attr interpolationmode sample-hold
vector 359 scenario.client2.tcp.conn-43 rcvAdv:vector ETV
attr interpolationmode sample-hold
vector 360 scenario.client2.tcp.conn-43 rcvWnd:vector ETV
attr interpolationmode sample-hold
vector 361 scenario.client2.tcp.conn-43 sndAck:vector ETV
attr interpolationmode sample-hold
vector 362 scenario.client0.tcp.conn-44 rcvAdv:vector ETV
attr interpolationmode sample-hold
vector 363 scenario.client0.tcp.conn-44 sndWnd:vector ETV
attr interpolationmode sample-hold
vector 364 scenario.client0.tcp.conn-44 tcpRcvQueueBytes:vector ETV
attr interpolationmode sample-hold
vector 365 scenario.client0.tcp.conn-44 rcvWnd:vector ETV
attr interpolationmode sample-hold
vector 366 scenario.client0.tcp.conn-44 sndAck:vector ETV
attr interpolationmode sample-hold
vector 367 scenario.client2.tcp.conn-43 rcvSeq:vector ETV
attr interpolationmode sample-hold
vector 368 scenario.client2.tcp.conn-43 rcvAck:vector ETV
attr interpolationmode sample-hold
vector 369 scenario.client2.tcp.conn-43 sndWnd:vector ETV
attr interpolationmode sample-hold
vector 370 scenario.client2.tcp.conn-43 unacked:vector ETV
attr interpolationmode sample-hold
vector 371 scenario.client0.tcp.conn-44 rcvSeq:vector ETV
attr interpolationmode sample-hold
vector 372 scenario.client0.tcp.conn-44 rcvAck:vector ETV
attr interpolationmode sample-hold
vector 373 scenario.client0.tcp.conn-44 unacked:vector ETV
attr interpolationmode sample-hold
vector 374 scenario.client0.tcp.conn-44 cwnd:vector ETV
attr interpolationmode sample-hold
vector 375 scenario.client0.tcp.conn-44 ssthresh:vector ETV
attr interpolationmode sample-hold
vector 376 scenario.client0.tcp.conn-44 dupAcks:vector ETV
attr interpolationmode sample-hold
vector 377 scenario.client2.tcp.conn-43 rtt:vector ETV
attr interpolationmode sample-hold
vector 378 scenario.client2.tcp.conn-43 srtt:vector ETV
attr interpolationmode sample-hold
vector 379 scenario.client2.tcp.conn-43 rttvar:vector ETV
attr interpolationmode sample-hold
vector 380 scenario.client2.tcp.conn-43 rto:vector ETV
attr interpolationmode sample-hold
vector 381 scenario.client2.tcp.conn-43 cwnd:vector ETV
attr interpolationmode sample-hold
vector 382 scenario.client2.tcp.conn-43 ssthresh:vector ETV
attr interpolationmode sample-hold
vector 383 scenario.client2.tcp.conn-43 dupAcks:vector ETV
attr interpolationmode sample-hold
vector 384 scenario.client1.tcp.conn-45 tcpRcvQueueBytes:vector ETV
attr interpolationmode sample-hold
vector 385 scenario.client1.tcp.conn-45 rcvAdv:vector ETV
attr interpolationmode sample-hold
vector 386 scenario.client1.tcp.conn-45 rcvWnd:vector ETV
attr interpolationmode sample-hold
vector 387 scenario.client1.tcp.conn-45 sndAck:vector ETV
attr interpolationmode sample-hold
vector 388 scenario.client2.tcp.conn-46 rcvAdv:vector ETV
attr interpolationmode sample-hold
vector 389 scenario.client2.tcp.conn-46 sndWnd:vector ETV
attr interpolationmode sample-hold
vector 390 scenario.client2.tcp.conn-46 tcpRcvQueueBytes:vector ETV
attr interpolationmode sample-hold
vector 391 scenario.client2.tcp.conn-46 rcvWnd:vector ETV
attr interpolationmode sample-hold
vector 392 scenario.client2.tcp.conn-46 sndAck:vector ETV
attr interpolationmode sample-hold
vector 393 scenario.client1.tcp.conn-45 rcvSeq:vector ETV
attr interpolationmode sample-hold
vector 394 scenario.client1.tcp.conn-45 rcvAck:vector ETV
attr interpolationmode sample-hold
vector 395 scenario.client1.tcp.conn-45 sndWnd:vector ETV
attr interpolationmode sample-hold
vector 396 scenario.client1.tcp.conn-45 unacked:vector ETV
attr interpolationmode sample-hold
vector 397 scenario.client2.tcp.conn-46 rcvSeq:vector ETV
attr interpolationmode sample-hold
vector 398 scenario.client2.tcp.conn-46 rcvAck:vector ETV
attr interpolationmode sample-hold
vector 399 scenario.client2.tcp.conn-46 unacked:vector ETV
attr interpolationmode sample-hold
vector 400 scenario.client2.tcp.conn-46 cwnd:vector ETV
attr interpolationmode sample-hold
vector 401 scenario.client2.tcp.conn-46 ssthresh:vector ETV
attr interpolationmode sample-hold
vector 402 scenario.client2.tcp.conn-46 dupAcks:vector ETV
attr interpolationmode sample-hold
vector 403 scenario.client1.tcp.conn-45 rtt:vector ETV
attr interpolationmode sample-hold
vector 404 scenario.client1.tcp.conn-45 srtt:vector ETV
attr interpolationmode sample-hold
vector 405 scenario.client1.tcp.conn-45 rttvar:vector ETV
attr interpolationmode sample-hold
vector 406 scenario.client1.tcp.conn-45 rto:vector ETV
attr interpolationmode sample-hold
vector 407 scenario.client1.tcp.conn-45 cwnd:vector ETV
attr interpolationmode sample-hold
vector 408 scenario.client1.tcp.conn-45 ssthresh:vector ETV
attr interpolationmode sample-hold
vector 409 scenario.client1.tcp.conn-45 dupAcks:vector ETV
attr interpolationmode sample-hold
vector 410 scenario.client0.tcp.conn-47 tcpRcvQueueBytes:vector ETV
attr interpolationmode sample-hold
vector 411 scenario.client0.tcp.conn-47 rcvAdv:vector ETV
attr interpolationmode sample-hold
vector 412 scenario.client0.tcp.conn-47 rcvWnd:vector ETV
attr interpolationmode sample-hold
vector 413 scenario.client0.tcp.conn-47 sndAck:vector ETV
attr interpolationmode sample-hold
vector 414 scenario.client1.tcp.conn-48 rcvAdv:vector ETV
attr interpolationmode sample-hold
vector 415 scenario.client1.tcp.conn-48 sndWnd:vector ETV
attr interpolationmode sample-hold
vector 416 scenario.client1.tcp.conn-48 tcpRcvQueueBytes:vector ETV
attr interpolationmode sample-hold
vector 417 scenario.client1.tcp.conn-48 rcvWnd:vector ETV
attr interpolationmode sample-hold
vector 418 scenario.client1.tcp.conn-48 sndAck:vector ETV
attr interpolationmode sample-hold
vector 419 scenario.client0.tcp.conn-47 rcvSeq:vector ETV
attr interpolationmode sample-hold
vector 420 scenario.client0.tcp.conn-47 rcvAck:vector ETV
attr interpolationmode sample-hold
vector 421 scenario.client0.tcp.conn-47 sndWnd:vector ETV
attr interpolationmode sample-hold
vector 422 scenario.client0.tcp.conn-47 unacked:vector ETV
attr interpolationmode sample-hold
vector 423 scenario.client1.tcp.conn-48 rcvSeq:vector ETV
attr interpolationmode sample-hold
vector 424 scenario.client1.tcp.conn-48 rcvAck:vector ETV
attr interpolationmode sample-hold
vector 425 scenario.client1.tcp.conn-48 unacked:vector ETV
attr interpolationmode sample-hold
vector 426 scenario.client1.tcp.conn-48 cwnd:vector ETV
attr interpolationmode sample-hold
vector 427 scenario.client1.tcp.conn-48 ssthresh:vector ETV
attr interpolationmode sample-hold
vector 428 scenario.client1.tcp.conn-48 dupAcks:vector ETV
attr interpolationmode sample-hold
vector 429 scenario.client0.tcp.conn-47 rtt:vector ETV
attr interpolationmode sample-hold
vector 430 scenario.client0.tcp.conn-47 srtt:vector ETV
attr interpolationmode sample-hold
vector 431 scenario.client0.tcp.conn-47 rttvar:vector ETV
attr interpolationmode sample-hold
vector 432 scenario.client0.tcp.conn-47 rto:vector ETV
attr interpolationmode sample-hold
vector 433 scenario.client0.tcp.conn-47 cwnd:vector ETV
attr interpolationmode sample-hold
vector 434 scenario.client0.tcp.conn-47 ssthresh:vector ETV
attr interpolationmode sample-hold
vector 435 scenario.client0.tcp.conn-47 dupAcks:vector ETV
attr interpolationmode sample-hold
vector 436 scenario.client0.tcp.conn-49 tcpRcvQueueBytes:vector ETV
attr interpolationmode sample-hold
vector 437 scenario.client0.tcp.conn-49 rcvAdv:vector ETV
attr interpolationmode sample-hold
vector 438 scenario.client0.tcp.conn-49 rcvWnd:vector ETV
attr interpolationmode sample-hold
vector 439 scenario.client0.tcp.conn-49 sndAck:vector ETV
attr interpolationmode sample-hold
vector 440 scenario.client3.tcp.conn-50 tcpRcvQueueBytes:vector ETV
attr interpolationmode sample-hold
vector 441 scenario.client3.tcp.conn-50 rcvAdv:vector ETV
attr interpolationmode sample-hold
vector 442 scenario.client3.tcp.conn-50 rcvWnd:vector ETV
attr interpolationmode sample-hold
vector 443 scenario.client3.tcp.conn-50 sndAck:vector ETV
attr interpolationmode sample-hold
vector 444 scenario.client0.ppp[3].ppp rcvdPkFromHl:vector(packetBytes) ETV
attr interpolationmode none
attr source packetReceivedFromUpper
attr title "packets received from higher layer, vector(packetBytes)"
vector 445 scenario.client0.ppp[3].ppp.queue packetPushed:vector(packetBytes) ETV
attr interpolationmode none
attr title "packet pushed, vector(packetBytes)"
vector 446 scenario.client0.ppp[3].ppp.queue queueLength:vector ETV
attr interpolationmode sample-hold
attr source "count(packetPushed) - count(packetPopped) - count(packetRemoved) - count(packetDropped)"
attr title "queue length, vector"
vector 447 scenario.client0.ppp[3].ppp.queue packetPopped:vector(packetBytes) ETV
attr interpolationmode none
attr title "packet popped, vector(packetBytes)"
vector 448 scenario.client0.ppp[3].ppp.queue queueingTime:vector ETV
attr interpolationmode none
attr source queueingTime(packetPopped)
attr title "queueing times, vector"
attr unit s
vector 449 scenario.client0.ppp[3].ppp txPk:vector(packetBytes) ETV
attr interpolationmode none
attr source packetSentToLower
attr title "packets transmitted, vector(packetBytes)"
vector 450 scenario.client3.ppp[3].ppp rcvdPkFromHl:vector(packetBytes) ETV
attr interpolationmode none
attr source packetReceivedFromUpper
attr title "packets received from higher layer, vector(packetBytes)"
vector 451 scenario.client3.ppp[3].ppp.queue packetPushed:vector(packetBytes) ETV
attr interpolationmode none
attr title "packet pushed, vector(packetBytes)"
vector 452 scenario.client3.ppp[3].ppp.queue queueLength:vector ETV
attr interpolationmode sample-hold
attr source "count(packetPushed) - count(packetPopped) - count(packetRemoved) - count(packetDropped)"
attr title "queue length, vector"
vector 453 scenario.client3.ppp[3].ppp.queue packetPopped:vector(packetBytes) ETV
attr interpolationmode none
attr title "packet popped, vector(packetBytes)"
vector 454 scenario.client3.ppp[3].ppp.queue queueingTime:vector ETV
attr interpolationmode none
attr source queueingTime(packetPopped)
attr title "queueing times, vector"
attr unit s
vector 455 scenario.client3.ppp[3].ppp txPk:vector(packetBytes) ETV
attr interpolationmode none
attr source packetSentToLower
attr title "packets transmitted, vector(packetBytes)"
vector 456 scenario.client4.ppp[0].ppp rxPkOk:vector(packetBytes) ETV
attr interpolationmode none
attr source rxPkOk
attr title "packets received OK, vector(packetBytes)"
vector 457 scenario.client4.ppp[0].ppp passedUpPk:vector(packetBytes) ETV
attr interpolationmode none
attr source packetSentToUpper
attr title "packets passed to higher layer, vector(packetBytes)"
vector 458 scenario.client4.ppp[3].ppp rxPkOk:vector(packetBytes) ETV
attr interpolationmode none
attr source rxPkOk
attr title "packets received OK, vector(packetBytes)"
vector 459 scenario.client4.ppp[3].ppp passedUpPk:vector(packetBytes) ETV
attr interpolationmode none
attr source packetSentToUpper
attr title "packets passed to higher layer, vector(packetBytes)"
vector 460 scenario.client4.tcp.conn-4 rcvSeq:vector ETV
attr interpolationmode sample-hold
vector 461 scenario.client4.tcp.conn-4 rcvAck:vector ETV
attr interpolationmode sample-hold
vector 462 scenario.client4.tcp.conn-51 rcvAdv:vector ETV
attr interpolationmode sample-hold
vector 463 scenario.client4.tcp.conn-51 sndWnd:vector ETV
attr interpolationmode sample-hold
vector 464 scenario.client4.tcp.conn-51 tcpRcvQueueBytes:vector ETV
attr interpolationmode sample-hold
vector 465 scenario.client4.tcp.conn-51 rcvWnd:vector ETV
attr interpolationmode sample-hold
vector 466 scenario.client4.tcp.conn-51 sndAck:vector ETV
attr interpolationmode sample-hold
vector 467 scenario.client4.tcp.conn-52 rcvAdv:vector ETV
attr interpolationmode sample-hold
vector 468 scenario.client4.tcp.conn-52 sndWnd:vector ETV
attr interpolationmode sample-hold
vector 469 scenario.client4.tcp.conn-52 tcpRcvQueueBytes:vector ETV
attr interpolationmode sample-hold
vector 470 scenario.client4.tcp.conn-52 rcvWnd:vector ETV
attr interpolationmode sample-hold
vector 471 scenario.client4.tcp.conn-52 sndAck:vector ETV
attr interpolationmode sample-hold
vector 472 scenario.client4.ppp[0].ppp rcvdPkFromHl:vector(packetBytes) ETV
attr interpolationmode none
attr source packetReceivedFromUpper
attr title "packets received from higher layer, vector(packetBytes)"
vector 473 scenario.client4.ppp[0].ppp.queue packetPushed:vector(packetBytes) ETV
attr interpolationmode none
attr title "packet pushed, vector(packetBytes)"
vector 474 scenario.client4.ppp[0].ppp.queue queueLength:vector ETV
attr interpolationmode sample-hold
attr source "count(packetPushed) - count(packetPopped) - count(packetRemoved) - count(packetDropped)"
attr title "queue length, vector"
vector 475 scenario.client4.ppp[0].ppp.queue packetPopped:vector(packetBytes) ETV
attr interpolationmode none
attr title "packet popped, vector(packetBytes)"
vector 476 scenario.client4.ppp[0].ppp.queue queueingTime:vector ETV
attr interpolationmode none
attr source queueingTime(packetPopped)
attr title "queueing times, vector"
attr unit s
vector 477 scenario.client4.ppp[0].ppp txPk:vector(packetBytes) ETV
attr interpolationmode none
attr source packetSentToLower
attr title "packets transmitted, vector(packetBytes)"
vector 478 scenario.client4.ppp[3].ppp rcvdPkFromHl:vector(packetBytes) ETV
attr interpolationmode none
attr source packetReceivedFromUpper
attr title "packets received from higher layer, vector(packetBytes)"
vector 479 scenario.client4.ppp[3].ppp.queue packetPushed:vector(packetBytes) ETV
attr interpolationmode none
attr title "packet pushed, vector(packetBytes)"
vector 480 scenario.client4.ppp[3].ppp.queue queueLength:vector ETV
attr interpolationmode sample-hold
attr source "count(packetPushed) - count(packetPopped) - count(packetRemoved) - count(packetDropped)"
attr title "queue length, vector"
vector 481 scenario.client4.ppp[3].ppp.queue packetPopped:vector(packetBytes) ETV
attr interpolationmode none
attr title "packet popped, vector(packetBytes)"
vector 482 scenario.client4.ppp[3].ppp.queue queueingTime:vector ETV
attr interpolationmode none
attr source queueingTime(packetPopped)
attr title "queueing times, vector"
attr unit s
vector 483 scenario.client4.ppp[3].ppp txPk:vector(packetBytes) ETV
attr interpolationmode none
attr source packetSentToLower
attr title "packets transmitted, vector(packetBytes)"
vector 484 scenario.client0.ppp[3].ppp rxPkOk:vector(packetBytes) ETV
attr interpolationmode none
attr source rxPkOk
attr title "packets received OK, vector(packetBytes)"
vector 485 scenario.client0.ppp[3].ppp passedUpPk:vector(packetBytes) ETV
attr interpolationmode none
attr source packetSentToUpper
attr title "packets passed to higher layer, vector(packetBytes)"
vector 486 scenario.client3.ppp[3].ppp rxPkOk:vector(packetBytes) ETV
attr interpolationmode none
attr source rxPkOk
attr title "packets received OK, vector(packetBytes)"
vector 487 scenario.client3.ppp[3].ppp passedUpPk:vector(packetBytes) ETV
attr interpolationmode none
attr source packetSentToUpper
attr title "packets passed to higher layer, vector(packetBytes)"
vector 488 scenario.client0.tcp.conn-49 rcvSeq:vector ETV
attr interpolationmode sample-hold
vector 489 scenario.client0.tcp.conn-49 rcvAck:vector ETV
attr interpolationmode sample-hold
vector 490 scenario.client0.tcp.conn-49 sndWnd:vector ETV
attr interpolationmode sample-hold
vector 491 scenario.client0.tcp.conn-49 unacked:vector ETV
attr interpolationmode sample-hold
vector 492 scenario.client3.tcp.conn-50 rcvSeq:vector ETV
attr interpolationmode sample-hold
vector 493 scenario.client3.tcp.conn-50 rcvAck:vector ETV
attr interpolationmode sample-hold
vector 494 scenario.client3.tcp.conn-50 sndWnd:vector ETV
attr interpolationmode sample-hold
vector 495 scenario.client3.tcp.conn-50 unacked:vector ETV
attr interpolationmode sample-hold
vector 496 scenario.client4.tcp.conn-51 rcvSeq:vector ETV
attr interpolationmode sample-hold
vector 497 scenario.client4.tcp.conn-51 rcvAck:vector ETV
attr interpolationmode sample-hold
vector 498 scenario.client4.tcp.conn-51 unacked:vector ETV
attr interpolationmode sample-hold
vector 499 scenario.client4.tcp.conn-51 cwnd:vector ETV
attr interpolationmode sample-hold
vector 500 scenario.client4.tcp.conn-51 ssthresh:vector ETV
attr interpolationmode sample-hold
vector 501 scenario.client4.tcp.conn-51 dupAcks:vector ETV
attr interpolationmode sample-hold
vector 502 scenario.client4.tcp.conn-52 rcvSeq:vector ETV
attr interpolationmode sample-hold
vector 503 scenario.client4.tcp.conn-52 rcvAck:vector ETV
attr interpolationmode sample-hold
vector 504 scenario.client4.tcp.conn-52 unacked:vector ETV
attr interpolationmode sample-hold
vector 505 scenario.client4.tcp.conn-52 cwnd:vector ETV
attr interpolationmode sample-hold
vector 506 scenario.client4.tcp.conn-52 ssthresh:vector ETV
attr interpolationmode sample-hold
vector 507 scenario.client4.tcp.conn-52 dupAcks:vector ETV
attr interpolationmode sample-hold
vector 508 scenario.client0.tcp.conn-49 rtt:vector ETV
attr interpolationmode sample-hold
vector 509 scenario.client0.tcp.conn-49 srtt:vector ETV
attr interpolationmode sample-hold
vector 510 scenario.client0.tcp.conn-49 rttvar:vector ETV
attr interpolationmode sample-hold
vector 511 scenario.client0.tcp.conn-49 rto:vector ETV
attr interpolationmode sample-hold
vector 512 scenario.client0.tcp.conn-49 cwnd:vector ETV
attr interpolationmode sample-hold
vector 513 scenario.client0.tcp.conn-49 ssthresh:vector ETV
attr interpolationmode sample-hold
vector 514 scenario.client0.tcp.conn-49 dupAcks:vector ETV
attr interpolationmode sample-hold
vector 515 scenario.client3.tcp.conn-50 rtt:vector ETV
attr interpolationmode sample-hold
vector 516 scenario.client3.tcp.conn-50 srtt:vector ETV
attr interpolationmode sample-hold
vector 517 scenario.client3.tcp.conn-50 rttvar:vector ETV
attr interpolationmode sample-hold
vector 518 scenario.client3.tcp.conn-50 rto:vector ETV
attr interpolationmode sample-hold
vector 519 scenario.client3.tcp.conn-50 cwnd:vector ETV
attr interpolationmode sample-hold
vector 520 scenario.client3.tcp.conn-50 ssthresh:vector ETV
attr interpolationmode sample-hold
vector 521 scenario.client3.tcp.conn-50 dupAcks:vector ETV
attr interpolationmode sample-hold
vector 522 scenario.client1.tcp.conn-53 tcpRcvQueueBytes:vector ETV
attr interpolationmode sample-hold
vector 523 scenario.client1.tcp.conn-53 rcvAdv:vector ETV
attr interpolationmode sample-hold
vector 524 scenario.client1.tcp.conn-53 rcvWnd:vector ETV
attr interpolationmode sample-hold
vector 525 scenario.client1.tcp.conn-53 sndAck:vector ETV
attr interpolationmode sample-hold
vector 526 scenario.client1.ppp[3].ppp rcvdPkFromHl:vector(packetBytes) ETV
attr interpolationmode none
attr source packetReceivedFromUpper
attr title "packets received from higher layer, vector(packetBytes)"
vector 527 scenario.client1.ppp[3].ppp.queue packetPushed:vector(packetBytes) ETV
attr interpolationmode none
attr title "packet pushed, vector(packetBytes)"
vector 528 scenario.client1.ppp[3].ppp.queue queueLength:vector ETV
attr interpolationmode sample-hold
attr source "count(packetPushed) - count(packetPopped) - count(packetRemoved) - count(packetDropped)"
attr title "queue length, vector"
vector 529 scenario.client1.ppp[3].ppp.queue packetPopped:vector(packetBytes) ETV
attr interpolationmode none
attr title "packet popped, vector(packetBytes)"
vector 530 scenario.client1.ppp[3].ppp.queue queueingTime:vector ETV
attr interpolationmode none
attr source queueingTime(packetPopped)
attr title "queueing times, vector"
attr unit s
vector 531 scenario.client1.ppp[3].ppp txPk:vector(packetBytes) ETV
attr interpolationmode none
attr source packetSentToLower
attr title "packets transmitted, vector(packetBytes)"
vector 532 scenario.client2.tcp.conn-54 tcpRcvQueueBytes:vector ETV
attr interpolationmode sample-hold
vector 533 scenario.client2.tcp.conn-54 rcvAdv:vector ETV
attr interpolationmode sample-hold
vector 534 scenario.client2.tcp.conn-54 rcvWnd:vector ETV
attr interpolationmode sample-hold
vector 535 scenario.client2.tcp.conn-54 sndAck:vector ETV
attr interpolationmode sample-hold
vector 536 scenario.client2.ppp[3].ppp rcvdPkFromHl:vector(packetBytes) ETV
attr interpolationmode none
attr source packetReceivedFromUpper
attr title "packets received from higher layer, vector(packetBytes)"
vector 537 scenario.client2.ppp[3].ppp.queue packetPushed:vector(packetBytes) ETV
attr interpolationmode none
attr title "packet pushed, vector(packetBytes)"
vector 538 scenario.client2.ppp[3].ppp.queue queueLength:vector ETV
attr interpolationmode sample-hold
attr source "count(packetPushed) - count(packetPopped) - count(packetRemoved) - count(packetDropped)"
attr title "queue length, vector"
vector 539 scenario.client2.ppp[3].ppp.queue packetPopped:vector(packetBytes) ETV
attr interpolationmode none
attr title "packet popped, vector(packetBytes)"
vector 540 scenario.client2.ppp[3].ppp.queue queueingTime:vector ETV
attr interpolationmode none
attr source queueingTime(packetPopped)
attr title "queueing times, vector"
attr unit s
vector 541 scenario.client2.ppp[3].ppp txPk:vector(packetBytes) ETV
attr interpolationmode none
attr source packetSentToLower
attr title "packets transmitted, vector(packetBytes)"
vector 542 scenario.client4.ppp[1].ppp rxPkOk:vector(packetBytes) ETV
attr interpolationmode none
attr source rxPkOk
attr title "packets received OK, vector(packetBytes)"
vector 543 scenario.client4.ppp[1].ppp passedUpPk:vector(packetBytes) ETV
attr interpolationmode none
attr source packetSentToUpper
attr title "packets passed to higher layer, vector(packetBytes)"
vector 544 scenario.client4.tcp.conn-55 rcvAdv:vector ETV
attr interpolationmode sample-hold
vector 545 scenario.client4.tcp.conn-55 sndWnd:vector ETV
attr interpolationmode sample-hold
vector 546 scenario.client4.tcp.conn-55 tcpRcvQueueBytes:vector ETV
attr interpolationmode sample-hold
vector 547 scenario.client4.tcp.conn-55 rcvWnd:vector ETV
attr interpolationmode sample-hold
vector 548 scenario.client4.tcp.conn-55 sndAck:vector ETV
attr interpolationmode sample-hold
vector 549 scenario.client4.ppp[1].ppp rcvdPkFromHl:vector(packetBytes) ETV
attr interpolationmode none
attr source packetReceivedFromUpper
attr title "packets received from higher layer, vector(packetBytes)"
vector 550 scenario.client4.ppp[1].ppp.queue packetPushed:vector(packetBytes) ETV
attr interpolationmode none
attr title "packet pushed, vector(packetBytes)"
vector 551 scenario.client4.ppp[1].ppp.queue queueLength:vector ETV
attr interpolationmode sample-hold
attr source "count(packetPushed) - count(packetPopped) - count(packetRemoved) - count(packetDropped)"
attr title "queue length, vector"
vector 552 scenario.client4.ppp[1].ppp.queue packetPopped:vector(packetBytes) ETV
attr interpolationmode none
attr title "packet popped, vector(packetBytes)"
vector 553 scenario.client4.ppp[1].ppp.queue queueingTime:vector ETV
attr interpolationmode none
attr source queueingTime(packetPopped)
attr title "queueing times, vector"
attr unit s
vector 554 scenario.client4.ppp[1].ppp txPk:vector(packetBytes) ETV
attr interpolationmode none
attr source packetSentToLower
attr title "packets transmitted, vector(packetBytes)"
vector 555 scenario.client4.ppp[2].ppp rxPkOk:vector(packetBytes) ETV
attr interpolationmode none
attr source rxPkOk
attr title "packets received OK, vector(packetBytes)"
vector 556 scenario.client4.ppp[2].ppp passedUpPk:vector(packetBytes) ETV
attr interpolationmode none
attr source packetSentToUpper
attr title "packets passed to higher layer, vector(packetBytes)"
vector 557 scenario.client4.tcp.conn-56 rcvAdv:vector ETV
attr interpolationmode sample-hold
vector 558 scenario.client4.tcp.conn-56 sndWnd:vector ETV
attr interpolationmode sample-hold
vector 559 scenario.client4.tcp.conn-56 tcpRcvQueueBytes:vector ETV
attr interpolationmode sample-hold
vector 560 scenario.client4.tcp.conn-56 rcvWnd:vector ETV
attr interpolationmode sample-hold
vector 561 scenario.client4.tcp.conn-56 sndAck:vector ETV
attr interpolationmode sample-hold
vector 562 scenario.client4.ppp[2].ppp rcvdPkFromHl:vector(packetBytes) ETV
attr interpolationmode none
attr source packetReceivedFromUpper
attr title "packets received from higher layer, vector(packetBytes)"
vector 563 scenario.client4.ppp[2].ppp.queue packetPushed:vector(packetBytes) ETV
attr interpolationmode none
attr title "packet pushed, vector(packetBytes)"
vector 564 scenario.client4.ppp[2].ppp.queue queueLength:vector ETV
attr interpolationmode sample-hold
attr source "count(packetPushed) - count(packetPopped) - count(packetRemoved) - count(packetDropped)"
attr title "queue length, vector"
vector 565 scenario.client4.ppp[2].ppp.queue packetPopped:vector(packetBytes) ETV
attr interpolationmode none
attr title "packet popped, vector(packetBytes)"
vector 566 scenario.client4.ppp[2].ppp.queue queueingTime:vector ETV
attr interpolationmode none
attr source queueingTime(packetPopped)
attr title "queueing times, vector"
attr unit s
vector 567 scenario.client4.ppp[2].ppp txPk:vector(packetBytes) ETV
attr interpolationmode none
attr source packetSentToLower
attr title "packets transmitted, vector(packetBytes)"
vector 568 scenario.client1.ppp[3].ppp rxPkOk:vector(packetBytes) ETV
attr interpolationmode none
attr source rxPkOk
attr title "packets received OK, vector(packetBytes)"
vector 569 scenario.client1.ppp[3].ppp passedUpPk:vector(packetBytes) ETV
attr interpolationmode none
attr source packetSentToUpper
attr title "packets passed to higher layer, vector(packetBytes)"
vector 570 scenario.client1.tcp.conn-53 rcvSeq:vector ETV
attr interpolationmode sample-hold
vector 571 scenario.client1.tcp.conn-53 rcvAck:vector ETV
attr interpolationmode sample-hold
vector 572 scenario.client1.tcp.conn-53 sndWnd:vector ETV
attr interpolationmode sample-hold
vector 573 scenario.client1.tcp.conn-53 unacked:vector ETV
attr interpolationmode sample-hold
vector 574 scenario.client2.ppp[3].ppp rxPkOk:vector(packetBytes) ETV
attr interpolationmode none
attr source rxPkOk
attr title "packets received OK, vector(packetBytes)"
vector 575 scenario.client2.ppp[3].ppp passedUpPk:vector(packetBytes) ETV
attr interpolationmode none
attr source packetSentToUpper
attr title "packets passed to higher layer, vector(packetBytes)"
vector 576 scenario.client2.tcp.conn-54 rcvSeq:vector ETV
attr interpolationmode sample-hold
vector 577 scenario.client2.tcp.conn-54 rcvAck:vector ETV
attr interpolationmode sample-hold
vector 578 scenario.client2.tcp.conn-54 sndWnd:vector ETV
attr interpolationmode sample-hold
vector 579 scenario.client2.tcp.conn-54 unacked:vector ETV
attr interpolationmode sample-hold
vector 580 scenario.client4.tcp.conn-55 rcvSeq:vector ETV
attr interpolationmode sample-hold
vector 581 scenario.client4.tcp.conn-55 rcvAck:vector ETV
attr interpolationmode sample-hold
vector 582 scenario.client4.tcp.conn-55 unacked:vector ETV
attr interpolationmode sample-hold
vector 583 scenario.client4.tcp.conn-55 cwnd:vector ETV
attr interpolationmode sample-hold
vector 584 scenario.client4.tcp.conn-55 ssthresh:vector ETV
attr interpolationmode sample-hold
vector 585 scenario.client4.tcp.conn-55 dupAcks:vector ETV
attr interpolationmode sample-hold
vector 586 scenario.client4.tcp.conn-56 rcvSeq:vector ETV
attr interpolationmode sample-hold
vector 587 scenario.client4.tcp.conn-56 rcvAck:vector ETV
attr interpolationmode sample-hold
vector 588 scenario.client4.tcp.conn-56 unacked:vector ETV
attr interpolationmode sample-hold
vector 589 scenario.client4.tcp.conn-56 cwnd:vector ETV
attr interpolationmode sample-hold
vector 590 scenario.client4.tcp.conn-56 ssthresh:vector ETV
attr interpolationmode sample-hold
vector 591 scenario.client4.tcp.conn-56 dupAcks:vector ETV
attr interpolationmode sample-hold
vector 592 scenario.client1.tcp.conn-53 rtt:vector ETV
attr interpolationmode sample-hold
vector 593 scenario.client1.tcp.conn-53 srtt:vector ETV
attr interpolationmode sample-hold
vector 594 scenario.client1.tcp.conn-53 rttvar:vector ETV
attr interpolationmode sample-hold
vector 595 scenario.client1.tcp.conn-53 rto:vector ETV
attr interpolationmode sample-hold
vector 596 scenario.client1.tcp.conn-53 cwnd:vector ETV
attr interpolationmode sample-hold
vector 597 scenario.client1.tcp.conn-53 ssthresh:vector ETV
attr interpolationmode sample-hold
vector 598 scenario.client1.tcp.conn-53 dupAcks:vector ETV
attr interpolationmode sample-hold
vector 599 scenario.client2.tcp.conn-54 rtt:vector ETV
attr interpolationmode sample-hold
vector 600 scenario.client2.tcp.conn-54 srtt:vector ETV
attr interpolationmode sample-hold
vector 601 scenario.client2.tcp.conn-54 rttvar:vector ETV
attr interpolationmode sample-hold
vector 602 scenario.client2.tcp.conn-54 rto:vector ETV
attr interpolationmode sample-hold
vector 603 scenario.client2.tcp.conn-54 cwnd:vector ETV
attr interpolationmode sample-hold
vector 604 scenario.client2.tcp.conn-54 ssthresh:vector ETV
attr interpolationmode sample-hold
vector 605 scenario.client2.tcp.conn-54 dupAcks:vector ETV
attr interpolationmode sample-hold
0	76449 681 0 1211 0 5.397830846522 29 0 1 14 14
1	77130 685 0 1136 0 5.190942760461 29 0 1 14 14
2	77815 437 0 1264 0 5.727835489486 19 0 1 9 9
3	78252 105 0 651 0 4.647562625446 5 0 1 2 2
4	78357 681 0 1204 0 5.396954846522 29 0 1 14 14
5	79038 783 0 1226 0 5.601692416272 33 0 1 16 16
6	79821 545 0 1189 0 5.285072954008 23 0 1 11 11
7	80366 105 0 817 0 4.757827036958 5 0 1 2 2
8	80471 685 0 1129 0 5.190066760461 29 0 1 14 14
9	81156 783 0 1219 0 5.600816416272 33 0 1 16 16
10	81939 560 0 1256 0 5.687328390636 23 0 1 11 11
11	82499 110 0 818 0 4.758203036958 5 0 1 2 2
12	82609 456 0 1271 0 5.728711489486 19 0 1 9 9
13	83065 568 0 1196 0 5.285948954008 23 0 1 11 11
14	83633 560 0 1249 0 5.686452390636 23 0 1 11 11
15	84193 110 0 652 0 4.647562625446 5 0 1 2 2
16	84303 110 0 671 0 4.648438625446 5 0 1 2 2
17	84413 110 0 829 0 4.758703036958 5 0 1 2 2
18	84523 110 0 838 0 4.759079036958 5 0 1 2 2
19	84633 110 0 672 0 4.648438625446 5 0 1 2 2
20	84743 98 8 1246 0.389172032838 5.686068390636 4 0 0 0 0
21	84841 145 8 1246 0.389172032838 5.686068390636 5 7504 105025 427604 44177312516
22	84986 110 8 1246 0.389172032838 5.686068390636 4 7504 7504 30016 225240064
23	85096 110 8 1246 0.389172032838 5.686068390636 4 0 97521 292563 28531036323
24	85206 286 11 1248 0.389172032838 5.686068390636 11 40 44 451 18515
25	85492 286 11 1248 0.389172032838 5.686068390636 11 40 44 451 18515
26	85778 550 11 1248 0.389172032838 5.686068390636 22 0 1 11 11
27	86328 286 11 1248 0.389172032838 5.686068390636 11 40 44 451 18515
28	86614 275 11 1248 0.389172032838 5.686068390636 11 0 0 0 0
29	86889 286 11 1248 0.389172032838 5.686068390636 11 47 51 528 25368
30	87175 286 13 1250 0.390080032838 5.686952390636 11 47 51 528 25368
31	87461 286 13 1250 0.390080032838 5.686952390636 11 40 44 451 18515
32	87747 88 15 340 0.390080032838 3.783311027436 3 97293 945600 1935742 1700804624650
33	87835 74 15 340 0.390080032838 3.783311027436 3 0 0 0 0
34	87909 148 15 1252 0.390080032838 5.686952390636 5 104798 104801 523995 54914152013
35	88057 54 15 28 0.390080032838 0.391872032838 2 7504 7504 15008 112620032
36	88111 174 15 1252 0.390080032838 5.686952390636 7 0 1 1 1
37	88285 111 15 1252 0.390080032838 5.686952390636 4 7503 7504 30015 225225057
38	88396 115 15 1252 0.390080032838 5.686952390636 4 97294 97297 389182 37865657286
39	88511 286 17 1255 0.390080032838 5.686952390636 11 40 44 456 18924
40	88797 286 17 1255 0.390080032838 5.686952390636 11 40 44 456 18924
41	89083 550 17 1255 0.390080032838 5.686952390636 22 0 1 11 11
42	89633 286 17 1255 0.390080032838 5.686952390636 11 40 44 456 18924
43	89919 275 17 1255 0.390080032838 5.686952390636 11 0 0 0 0
44	90194 286 17 1255 0.390080032838 5.686952390636 11 47 51 533 25847
45	90480 286 19 1257 0.390988032838 5.687828390636 11 47 51 533 25847
46	90766 286 19 1257 0.390988032838 5.687828390636 11 40 44 456 18924
47	91052 115 21 1259 0.390988032838 5.687828390636 4 97520 97521 390083 38041186723
48	91167 115 21 1259 0.390988032838 5.687828390636 4 97294 97297 389182 37865657286
49	91282 111 21 1259 0.390988032838 5.687828390636 4 7503 7504 30015 225225057
50	91393 150 21 1259 0.390988032838 5.687828390636 6 0 1 3 3
51	91543 87 28 1252 0.391872032838 5.686952390636 3 97294 97296 291885 28398951077
52	91630 87 28 1252 0.391872032838 5.686952390636 3 97521 97521 292563 28531036323
53	91717 24 28 28 0.391872032838 0.391872032838 1 0 0 0 0
54	91741 27 28 28 0.391872032838 0.391872032838 1 1072 1072 1072 1149184
55	91768 33 28 28 0.391872032838 0.391872032838 1 4294967295 4294967295 4294967295 1.844674406512e+019
56	91801 75 28 1252 0.391872032838 5.686952390636 3 0 0 0 0
57	91876 93 38 1259 0.392748032838 5.687828390636 3 0.00176 0.00176 0.00528 9.2928e-006
58	91969 100 38 1259 0.392748032838 5.687828390636 3 0.00022 0.0005809375 0.0012134375 5.5604462890625e-007
59	92069 102 38 1259 0.392748032838 5.687828390636 3 0.50294671875 0.65647 1.73402046875 1.0140777323155
60	92171 99 38 1259 0.392748032838 5.687828390636 3 2.0123678125 2.6261 6.9372953125 16.230633297542
61	92270 84 38 1259 0.392748032838 5.687828390636 3 1072 1608 3752 4884032
62	92354 102 38 1259 0.392748032838 5.687828390636 3 4294967295 4294967295 12884901885 5.5340232195359e+019
63	92456 75 38 1259 0.392748032838 5.687828390636 3 0 0 0 0
64	92531 98 40 1051 0.689199499496 5.083114198919 4 0 0 0 0
65	92629 145 40 1051 0.689199499496 5.083114198919 5 7504 180031 727628 129700953860
66	92774 110 40 1051 0.689199499496 5.083114198919 4 7504 7504 30016 225240064
67	92884 113 40 1051 0.689199499496 5.083114198919 4 0 172527 517581 89296697187
68	92997 232 43 1270 0.689199499496 5.728335489486 9 40 44 371 15315
69	93229 232 43 1270 0.689199499496 5.728335489486 9 40 44 371 15315
70	93461 446 43 1270 0.689199499496 5.728335489486 18 0 1 9 9
71	93907 232 43 1270 0.689199499496 5.728335489486 9 40 44 371 15315
72	94139 223 43 1270 0.689199499496 5.728335489486 9 0 0 0 0
73	94362 232 43 1270 0.689199499496 5.728335489486 9 47 51 434 20950
74	94594 233 45 1272 0.690107499496 5.729211489486 9 47 51 434 20950
[...]
355	157284 146 299 1109 3.574974052919 5.169837729301 5 1072 3216 10720 25856640
356	157430 176 299 1109 3.574974052919 5.169837729301 5 4294967295 4294967295 21474836475 9.2233720325598e+019
357	157606 131 299 1109 3.574974052919 5.169837729301 5 0 0 0 0
358	157737 209 301 1126 3.703360087893 5.189682760461 8 0 0 0 0
359	157946 278 301 1126 3.703360087893 5.189682760461 9 7504 933572 7476080 6972509743488
360	158224 233 301 1126 3.703360087893 5.189682760461 8 7504 7504 60032 450480128
361	158457 244 301 1126 3.703360087893 5.189682760461 8 0 926068 6482476 6003213584368
362	158701 280 308 1132 3.704268087893 5.190566760461 9 933345 933354 8400140 7840261335614
363	158981 58 308 321 3.704268087893 3.706060087893 2 7504 7504 15008 112620032
364	159039 392 308 1132 3.704268087893 5.190566760461 15 0 1 1 1
365	159431 233 308 1132 3.704268087893 5.190566760461 8 7503 7504 60031 450465121
366	159664 249 308 1132 3.704268087893 5.190566760461 8 925841 925850 7406764 6857519119040
367	159913 249 314 1139 3.705176087893 5.191442760461 8 926067 926068 7408543 6860813672857
368	160162 249 314 1139 3.705176087893 5.191442760461 8 925841 925850 7406764 6857519119040
369	160411 233 314 1139 3.705176087893 5.191442760461 8 7503 7504 60031 450465121
370	160644 366 314 1139 3.705176087893 5.191442760461 14 0 2 9 13
371	161010 218 321 1132 3.706060087893 5.190566760461 7 925841 925849 6480914 6000320896540
372	161228 218 321 1132 3.706060087893 5.190566760461 7 926068 926068 6482476 6003213584368
373	161446 26 321 321 3.706060087893 3.706060087893 1 0 0 0 0
374	161472 29 321 321 3.706060087893 3.706060087893 1 1072 1072 1072 1149184
375	161501 35 321 321 3.706060087893 3.706060087893 1 4294967295 4294967295 4294967295 1.844674406512e+019
376	161536 183 321 1132 3.706060087893 5.190566760461 7 0 0 0 0
377	161719 227 331 1139 3.706936087893 5.191442760461 7 0.00176 0.001768 0.012336 2.1739648e-005
378	161946 260 331 1139 3.706936087893 5.191442760461 7 0.00022 0.001070207017 0.004844550891 3.9163694112767e-006
379	162206 259 331 1139 3.706936087893 5.191442760461 7 0.29521387072 0.65647 3.192064561089 1.5572612514636
380	162465 259 331 1139 3.706936087893 5.191442760461 7 1.181925689897 2.6261 12.773102795247 24.931942461133
381	162724 204 331 1139 3.706936087893 5.191442760461 7 1072 4288 18760 58321088
382	162928 246 331 1139 3.706936087893 5.191442760461 7 4294967295 4294967295 30064771065 1.2912720845584e+020
383	163174 183 331 1139 3.706936087893 5.191442760461 7 0 0 0 0
384	163357 209 333 1081 3.782403027436 5.150469586108 8 0 0 0 0
385	163566 278 333 1081 3.782403027436 5.150469586108 9 7504 953332 7634160 7270791527808
386	163844 233 333 1081 3.782403027436 5.150469586108 8 7504 7504 60032 450480128
387	164077 244 333 1081 3.782403027436 5.150469586108 8 0 945828 6620796 6262134239088
388	164321 280 340 1087 3.783311027436 5.151353586108 9 953105 953114 8577980 8175748986814
389	164601 58 340 353 3.783311027436 3.785103027436 2 7504 7504 15008 112620032
390	164659 392 340 1087 3.783311027436 5.151353586108 15 0 1 1 1
391	165051 233 340 1087 3.783311027436 5.151353586108 8 7503 7504 60031 450465121
392	165284 249 340 1087 3.783311027436 5.151353586108 8 945601 945610 7564844 7153358093120
393	165533 249 346 1094 3.784219027436 5.152229586108 8 945827 945828 7566623 7156722953017
394	165782 249 346 1094 3.784219027436 5.152229586108 8 945601 945610 7564844 7153358093120
395	166031 233 346 1094 3.784219027436 5.152229586108 8 7503 7504 60031 450465121
396	166264 366 346 1094 3.784219027436 5.152229586108 14 0 2 9 13
397	166630 218 353 1087 3.785103027436 5.151353586108 7 945601 945609 6619234 6259179821020
398	166848 218 353 1087 3.785103027436 5.151353586108 7 945828 945828 6620796 6262134239088
399	167066 26 353 353 3.785103027436 3.785103027436 1 0 0 0 0
400	167092 29 353 353 3.785103027436 3.785103027436 1 1072 1072 1072 1149184
401	167121 35 353 353 3.785103027436 3.785103027436 1 4294967295 4294967295 4294967295 1.844674406512e+019
402	167156 183 353 1087 3.785103027436 5.151353586108 7 0 0 0 0
403	167339 227 363 1094 3.785979027436 5.152229586108 7 0.00176 0.001768 0.012336 2.1739648e-005
404	167566 260 363 1094 3.785979027436 5.152229586108 7 0.00022 0.001070207017 0.004844550891 3.9163694112767e-006
405	167826 259 363 1094 3.785979027436 5.152229586108 7 0.29521387072 0.65647 3.192064561089 1.5572612514636
406	168085 259 363 1094 3.785979027436 5.152229586108 7 1.181925689897 2.6261 12.773102795247 24.931942461133
407	168344 204 363 1094 3.785979027436 5.152229586108 7 1072 4288 18760 58321088
408	168548 246 363 1094 3.785979027436 5.152229586108 7 4294967295 4294967295 30064771065 1.2912720845584e+020
409	168794 183 363 1094 3.785979027436 5.152229586108 7 0 0 0 0
410	168977 155 365 846 3.946226386303 4.821326424635 6 0 0 0 0
411	169132 214 365 846 3.946226386303 4.821326424635 7 7504 994288 5973232 5931708071680
412	169346 173 365 846 3.946226386303 4.821326424635 6 7504 7504 45024 337860096
413	169519 180 365 846 3.946226386303 4.821326424635 6 0 986784 4933920 4868713313280
414	169699 216 372 852 3.947134386303 4.822210424635 7 994061 994067 6958443 6917132712073
415	169915 58 372 385 3.947134386303 3.948926386303 2 7504 7504 15008 112620032
416	169973 284 372 852 3.947134386303 4.822210424635 11 0 1 1 1
417	170257 173 372 852 3.947134386303 4.822210424635 6 7503 7504 45023 337845089
418	170430 185 372 852 3.947134386303 4.822210424635 6 986557 986563 5919359 5839801828507
419	170615 185 378 871 3.948042386303 4.823086424635 6 986783 986784 5920703 5842454002369
420	170800 185 378 871 3.948042386303 4.823086424635 6 986557 986563 5919359 5839801828507
421	170985 173 378 871 3.948042386303 4.823086424635 6 7503 7504 45023 337845089
422	171158 258 378 871 3.948042386303 4.823086424635 10 0 2 6 8
423	171416 154 385 852 3.948926386303 4.822210424635 5 986557 986562 4932796 4866495275538
424	171570 154 385 852 3.948926386303 4.822210424635 5 986784 986784 4933920 4868713313280
425	171724 26 385 385 3.948926386303 3.948926386303 1 0 0 0 0
426	171750 29 385 385 3.948926386303 3.948926386303 1 1072 1072 1072 1149184
427	171779 35 385 385 3.948926386303 3.948926386303 1 4294967295 4294967295 4294967295 1.844674406512e+019
428	171814 129 385 852 3.948926386303 4.822210424635 5 0 0 0 0
429	171943 160 395 871 3.949802386303 4.823086424635 5 0.00176 0.001768 0.008808 1.5516224e-005
430	172103 180 395 871 3.949802386303 4.823086424635 5 0.00022 0.000858155274 0.002800913087 1.8243832221547e-006
431	172283 182 395 871 3.949802386303 4.823086424635 5 0.385327251465 0.65647 2.559574481934 1.3563544247706
432	172465 179 395 871 3.949802386303 4.823086424635 5 1.542167161134 2.6261 10.241098840823 21.712275540625
433	172644 144 395 871 3.949802386303 4.823086424635 5 1072 3216 10720 25856640
434	172788 174 395 871 3.949802386303 4.823086424635 5 4294967295 4294967295 21474836475 9.2233720325598e+019
435	172962 129 395 871 3.949802386303 4.823086424635 5 0 0 0 0
436	173091 52 599 643 4.645362625446 4.647178625446 2 0 0 0 0
437	173143 93 599 643 4.645362625446 4.647178625446 3 7504 1169072 2345648 2733514992384
438	173236 58 599 643 4.645362625446 4.647178625446 2 7504 7504 15008 112620032
439	173294 58 599 643 4.645362625446 4.647178625446 2 0 1161568 1161568 1349240218624
440	173352 52 601 644 4.645362625446 4.647178625446 2 0 0 0 0
441	173404 93 601 644 4.645362625446 4.647178625446 3 7504 1169072 2345648 2733514992384
442	173497 58 601 644 4.645362625446 4.647178625446 2 7504 7504 15008 112620032
443	173555 58 601 644 4.645362625446 4.647178625446 2 0 1161568 1161568 1349240218624
444	173613 54 605 649 4.645362625446 4.647178625446 2 41 44 85 3617
445	173667 54 605 649 4.645362625446 4.647178625446 2 41 44 85 3617
446	173721 104 605 649 4.645362625446 4.647178625446 4 0 1 2 2
447	173825 54 605 649 4.645362625446 4.647178625446 2 41 44 85 3617
448	173879 52 605 649 4.645362625446 4.647178625446 2 0 0 0 0
449	173931 54 605 649 4.645362625446 4.647178625446 2 48 51 99 4905
450	173985 54 606 650 4.645362625446 4.647178625446 2 41 44 85 3617
451	174039 54 606 650 4.645362625446 4.647178625446 2 41 44 85 3617
452	174093 104 606 650 4.645362625446 4.647178625446 4 0 1 2 2
453	174197 54 606 650 4.645362625446 4.647178625446 2 41 44 85 3617
454	174251 52 606 650 4.645362625446 4.647178625446 2 0 0 0 0
455	174303 54 606 650 4.645362625446 4.647178625446 2 48 51 99 4905
456	174357 54 624 653 4.646270625446 4.648062625446 2 48 51 99 4905
457	174411 54 624 653 4.646270625446 4.648062625446 2 41 44 85 3617
458	174465 54 625 654 4.646270625446 4.648062625446 2 48 51 99 4905
459	174519 54 625 654 4.646270625446 4.648062625446 2 41 44 85 3617
460	174573 128 628 800 4.646270625446 4.756911036958 4 1161340 1189000 4700586 5524639668036
461	174701 104 628 800 4.646270625446 4.756911036958 4 0 0 0 0
462	174805 96 628 657 4.646270625446 4.648062625446 3 1168845 1168845 3506535 4098595902075
463	174901 58 628 657 4.646270625446 4.648062625446 2 7504 7504 15008 112620032
464	174959 78 628 657 4.646270625446 4.648062625446 3 0 1 1 1
465	175037 58 628 657 4.646270625446 4.648062625446 2 7503 7504 15007 112605025
466	175095 64 628 657 4.646270625446 4.648062625446 2 1161341 1161342 2322683 2697428159245
467	175159 96 629 658 4.646270625446 4.648062625446 3 1168845 1168845 3506535 4098595902075
468	175255 58 629 658 4.646270625446 4.648062625446 2 7504 7504 15008 112620032
469	175313 78 629 658 4.646270625446 4.648062625446 3 0 1 1 1
470	175391 58 629 658 4.646270625446 4.648062625446 2 7503 7504 15007 112605025
471	175449 64 629 658 4.646270625446 4.648062625446 2 1161341 1161342 2322683 2697428159245
472	175513 54 632 664 4.646270625446 4.648062625446 2 40 44 84 3536
473	175567 54 632 664 4.646270625446 4.648062625446 2 40 44 84 3536
474	175621 104 632 664 4.646270625446 4.648062625446 4 0 1 2 2
475	175725 54 632 664 4.646270625446 4.648062625446 2 40 44 84 3536
476	175779 52 632 664 4.646270625446 4.648062625446 2 0 0 0 0
477	175831 54 632 664 4.646270625446 4.648062625446 2 47 51 98 4810
478	175885 54 633 666 4.646270625446 4.648062625446 2 40 44 84 3536
479	175939 54 633 666 4.646270625446 4.648062625446 2 40 44 84 3536
480	175993 104 633 666 4.646270625446 4.648062625446 4 0 1 2 2
481	176097 54 633 666 4.646270625446 4.648062625446 2 40 44 84 3536
482	176151 52 633 666 4.646270625446 4.648062625446 2 0 0 0 0
483	176203 54 633 666 4.646270625446 4.648062625446 2 47 51 98 4810
484	176257 54 639 673 4.647178625446 4.648938625446 2 47 51 98 4810
485	176311 54 639 673 4.647178625446 4.648938625446 2 40 44 84 3536
486	176365 54 640 674 4.647178625446 4.648938625446 2 47 51 98 4810
487	176419 54 640 674 4.647178625446 4.648938625446 2 40 44 84 3536
488	176473 64 643 677 4.647178625446 4.648938625446 2 1161567 1161568 2323135 2698478114113
489	176537 64 643 677 4.647178625446 4.648938625446 2 1161341 1161342 2322683 2697428159245
490	176601 58 643 677 4.647178625446 4.648938625446 2 7503 7504 15007 112605025
491	176659 52 643 677 4.647178625446 4.648938625446 2 0 1 1 1
492	176711 64 644 678 4.647178625446 4.648938625446 2 1161567 1161568 2323135 2698478114113
493	176775 64 644 678 4.647178625446 4.648938625446 2 1161341 1161342 2322683 2697428159245
494	176839 58 644 678 4.647178625446 4.648938625446 2 7503 7504 15007 112605025
495	176897 52 644 678 4.647178625446 4.648938625446 2 0 1 1 1
496	176949 32 657 657 4.648062625446 4.648062625446 1 1161341 1161341 1161341 1348712918281
497	176981 32 657 657 4.648062625446 4.648062625446 1 1161568 1161568 1161568 1349240218624
498	177013 26 657 657 4.648062625446 4.648062625446 1 0 0 0 0
499	177039 29 657 657 4.648062625446 4.648062625446 1 1072 1072 1072 1149184
500	177068 35 657 657 4.648062625446 4.648062625446 1 4294967295 4294967295 4294967295 1.844674406512e+019
501	177103 26 657 657 4.648062625446 4.648062625446 1 0 0 0 0
502	177129 32 658 658 4.648062625446 4.648062625446 1 1161341 1161341 1161341 1348712918281
503	177161 32 658 658 4.648062625446 4.648062625446 1 1161568 1161568 1161568 1349240218624
504	177193 26 658 658 4.648062625446 4.648062625446 1 0 0 0 0
505	177219 29 658 658 4.648062625446 4.648062625446 1 1072 1072 1072 1149184
506	177248 35 658 658 4.648062625446 4.648062625446 1 4294967295 4294967295 4294967295 1.844674406512e+019
507	177283 26 658 658 4.648062625446 4.648062625446 1 0 0 0 0
508	177309 32 677 677 4.648938625446 4.648938625446 1 0.00176 0.00176 0.00176 3.0976e-006
509	177341 32 677 677 4.648938625446 4.648938625446 1 0.00022 0.00022 0.00022 4.84e-008
510	177373 32 677 677 4.648938625446 4.648938625446 1 0.65647 0.65647 0.65647 0.4309528609
511	177405 31 677 677 4.648938625446 4.648938625446 1 2.6261 2.6261 2.6261 6.89640121
512	177436 29 677 677 4.648938625446 4.648938625446 1 1072 1072 1072 1149184
513	177465 35 677 677 4.648938625446 4.648938625446 1 4294967295 4294967295 4294967295 1.844674406512e+019
514	177500 26 677 677 4.648938625446 4.648938625446 1 0 0 0 0
515	177526 32 678 678 4.648938625446 4.648938625446 1 0.00176 0.00176 0.00176 3.0976e-006
516	177558 32 678 678 4.648938625446 4.648938625446 1 0.00022 0.00022 0.00022 4.84e-008
517	177590 32 678 678 4.648938625446 4.648938625446 1 0.65647 0.65647 0.65647 0.4309528609
518	177622 31 678 678 4.648938625446 4.648938625446 1 2.6261 2.6261 2.6261 6.89640121
519	177653 29 678 678 4.648938625446 4.648938625446 1 1072 1072 1072 1149184
520	177682 35 678 678 4.648938625446 4.648938625446 1 4294967295 4294967295 4294967295 1.844674406512e+019
521	177717 26 678 678 4.648938625446 4.648938625446 1 0 0 0 0
522	177743 52 764 807 4.755627036958 4.757443036958 2 0 0 0 0
523	177795 93 764 807 4.755627036958 4.757443036958 3 7504 1196638 2400780 2863941316104
524	177888 58 764 807 4.755627036958 4.757443036958 2 7504 7504 15008 112620032
525	177946 58 764 807 4.755627036958 4.757443036958 2 0 1189134 1189134 1414039669956
526	178004 54 767 810 4.755627036958 4.757443036958 2 41 44 85 3617
527	178058 54 767 810 4.755627036958 4.757443036958 2 41 44 85 3617
528	178112 104 767 810 4.755627036958 4.757443036958 4 0 1 2 2
529	178216 54 767 810 4.755627036958 4.757443036958 2 41 44 85 3617
530	178270 52 767 810 4.755627036958 4.757443036958 2 0 0 0 0
531	178322 54 767 810 4.755627036958 4.757443036958 2 48 51 99 4905
532	178376 52 777 813 4.756003036958 4.757819036958 2 0 0 0 0
533	178428 93 777 813 4.756003036958 4.757819036958 3 7504 1196732 2400968 2864391269664
534	178521 58 777 813 4.756003036958 4.757819036958 2 7504 7504 15008 112620032
535	178579 58 777 813 4.756003036958 4.757819036958 2 0 1189228 1189228 1414263235984
536	178637 54 780 816 4.756003036958 4.757819036958 2 41 44 85 3617
537	178691 54 780 816 4.756003036958 4.757819036958 2 41 44 85 3617
538	178745 104 780 816 4.756003036958 4.757819036958 4 0 1 2 2
539	178849 54 780 816 4.756003036958 4.757819036958 2 41 44 85 3617
540	178903 52 780 816 4.756003036958 4.757819036958 2 0 0 0 0
541	178955 54 780 816 4.756003036958 4.757819036958 2 48 51 99 4905
542	179009 54 790 819 4.756535036958 4.758327036958 2 48 51 99 4905
543	179063 54 790 819 4.756535036958 4.758327036958 2 41 44 85 3617
544	179117 96 792 821 4.756535036958 4.758327036958 3 1196411 1196411 3589233 4294197842763
545	179213 58 792 821 4.756535036958 4.758327036958 2 7504 7504 15008 112620032
546	179271 78 792 821 4.756535036958 4.758327036958 3 0 1 1 1
547	179349 58 792 821 4.756535036958 4.758327036958 2 7503 7504 15007 112605025
548	179407 64 792 821 4.756535036958 4.758327036958 2 1188907 1188908 2377815 2827002087113
549	179471 54 794 825 4.756535036958 4.758327036958 2 40 44 84 3536
550	179525 54 794 825 4.756535036958 4.758327036958 2 40 44 84 3536
551	179579 104 794 825 4.756535036958 4.758327036958 4 0 1 2 2
552	179683 54 794 825 4.756535036958 4.758327036958 2 40 44 84 3536
553	179737 52 794 825 4.756535036958 4.758327036958 2 0 0 0 0
554	179789 54 794 825 4.756535036958 4.758327036958 2 47 51 98 4810
555	179843 54 798 828 4.756911036958 4.758703036958 2 48 51 99 4905
556	179897 54 798 828 4.756911036958 4.758703036958 2 41 44 85 3617
557	179951 96 800 831 4.756911036958 4.758703036958 3 1196505 1196505 3589515 4294872645075
558	180047 58 800 831 4.756911036958 4.758703036958 2 7504 7504 15008 112620032
559	180105 78 800 831 4.756911036958 4.758703036958 3 0 1 1 1
560	180183 58 800 831 4.756911036958 4.758703036958 2 7503 7504 15007 112605025
561	180241 64 800 831 4.756911036958 4.758703036958 2 1189001 1189002 2378003 2827449134005
562	180305 54 802 835 4.756911036958 4.758703036958 2 40 44 84 3536
563	180359 54 802 835 4.756911036958 4.758703036958 2 40 44 84 3536
564	180413 104 802 835 4.756911036958 4.758703036958 4 0 1 2 2
565	180517 54 802 835 4.756911036958 4.758703036958 2 40 44 84 3536
566	180571 52 802 835 4.756911036958 4.758703036958 2 0 0 0 0
567	180623 54 802 835 4.756911036958 4.758703036958 2 47 51 98 4810
568	180677 54 805 839 4.757443036958 4.759203036958 2 47 51 98 4810
569	180731 54 805 839 4.757443036958 4.759203036958 2 40 44 84 3536
570	180785 64 807 841 4.757443036958 4.759203036958 2 1189133 1189134 2378267 2828076961645
571	180849 64 807 841 4.757443036958 4.759203036958 2 1188907 1188908 2377815 2827002087113
572	180913 58 807 841 4.757443036958 4.759203036958 2 7503 7504 15007 112605025
573	180971 52 807 841 4.757443036958 4.759203036958 2 0 1 1 1
574	181023 54 811 842 4.757819036958 4.759579036958 2 47 51 98 4810
575	181077 54 811 842 4.757819036958 4.759579036958 2 40 44 84 3536
576	181131 64 813 844 4.757819036958 4.759579036958 2 1189227 1189228 2378455 2828524093513
577	181195 64 813 844 4.757819036958 4.759579036958 2 1189001 1189002 2378003 2827449134005
578	181259 58 813 844 4.757819036958 4.759579036958 2 7503 7504 15007 112605025
579	181317 52 813 844 4.757819036958 4.759579036958 2 0 1 1 1
580	181369 32 821 821 4.758327036958 4.758327036958 1 1188907 1188907 1188907 1413499854649
581	181401 32 821 821 4.758327036958 4.758327036958 1 1189134 1189134 1189134 1414039669956
582	181433 26 821 821 4.758327036958 4.758327036958 1 0 0 0 0
583	181459 29 821 821 4.758327036958 4.758327036958 1 1072 1072 1072 1149184
584	181488 35 821 821 4.758327036958 4.758327036958 1 4294967295 4294967295 4294967295 1.844674406512e+019
585	181523 26 821 821 4.758327036958 4.758327036958 1 0 0 0 0
586	181549 32 831 831 4.758703036958 4.758703036958 1 1189001 1189001 1189001 1413723378001
587	181581 32 831 831 4.758703036958 4.758703036958 1 1189228 1189228 1189228 1414263235984
588	181613 26 831 831 4.758703036958 4.758703036958 1 0 0 0 0
589	181639 29 831 831 4.758703036958 4.758703036958 1 1072 1072 1072 1149184
590	181668 35 831 831 4.758703036958 4.758703036958 1 4294967295 4294967295 4294967295 1.844674406512e+019
591	181703 26 831 831 4.758703036958 4.758703036958 1 0 0 0 0
592	181729 32 841 841 4.759203036958 4.759203036958 1 0.00176 0.00176 0.00176 3.0976e-006
593	181761 32 841 841 4.759203036958 4.759203036958 1 0.00022 0.00022 0.00022 4.84e-008
594	181793 32 841 841 4.759203036958 4.759203036958 1 0.65647 0.65647 0.65647 0.4309528609
595	181825 31 841 841 4.759203036958 4.759203036958 1 2.6261 2.6261 2.6261 6.89640121
596	181856 29 841 841 4.759203036958 4.759203036958 1 1072 1072 1072 1149184
597	181885 35 841 841 4.759203036958 4.759203036958 1 4294967295 4294967295 4294967295 1.844674406512e+019
598	181920 26 841 841 4.759203036958 4.759203036958 1 0 0 0 0
599	181946 32 844 844 4.759579036958 4.759579036958 1 0.00176 0.00176 0.00176 3.0976e-006
600	181978 32 844 844 4.759579036958 4.759579036958 1 0.00022 0.00022 0.00022 4.84e-008
601	182010 32 844 844 4.759579036958 4.759579036958 1 0.65647 0.65647 0.65647 0.4309528609
602	182042 31 844 844 4.759579036958 4.759579036958 1 2.6261 2.6261 2.6261 6.89640121
603	182073 29 844 844 4.759579036958 4.759579036958 1 1072 1072 1072 1149184
604	182102 35 844 844 4.759579036958 4.759579036958 1 4294967295 4294967295 4294967295 1.844674406512e+019
605	182137 26 844 844 4.759579036958 4.759579036958 1 0 0 0 0

