version 2
run J_34-0-20220107-18:06:32-13824
attr configname J_34
attr datetime 20220107-18:06:32
attr experiment J_34
attr inifile omnetpp.ini
attr iterationvars ""
attr iterationvarsf ""
attr measurement ""
attr network scenario
attr processid 13824
attr repetition 0
attr replication #0
attr resultdir results
attr runnumber 0
attr seedset 0
param **.client3.app[0].join 3.0
param **.client4.app[0].join 3.0
param **.ppp[*].ppp.queue.typename "\"DropTailQueue\""
param **.tcp.typename "\"Tcp\""
param **.tcp.nagleEnabled false
param **.cli*.app[*].nPar 5
param **.cli*.app[*].fPar 0
param **.numApps 1
param **.client0.app[*].typename "\"Node\""
param **.client0.app[0].localPort 1000
param **.client0.app[0].localPortL 1234
param **.client0.app[0].connectAddress "\"\""
param **.client0.app[0].connectPort 1234
param **.client1.app[*].typename "\"Node\""
param **.client1.app[0].localPort 1001
param **.client1.app[0].localPortL 1234
param **.client1.app[0].connectAddress "\"\""
param **.client1.app[0].connectPort 1234
param **.client2.app[*].typename "\"Node\""
param **.client2.app[0].localPort 1002
param **.client2.app[0].localPortL 1234
param **.client2.app[0].connectAddress "\"\""
param **.client2.app[0].connectPort 1234
param **.client3.app[*].typename "\"Node\""
param **.client3.app[0].localPort 1003
param **.client3.app[0].localPortL 1234
param **.client3.app[0].connectAddress "\"\""
param **.client3.app[0].connectPort 1234
param **.client4.app[*].typename "\"Node\""
param **.client4.app[0].localPort 1004
param **.client4.app[0].localPortL 1234
param **.client4.app[0].connectAddress "\"\""
param **.client4.app[0].connectPort 1234
param *.configurator.dumpAddresses true
param *.configurator.dumpTopology true
param *.configurator.dumpLinks true
param *.configurator.dumpRoutes true

vector 0 scenario.client0.ppp[0].ppp transmissionState:vector ETV
attr interpolationmode sample-hold
attr source transmissionStateChanged
attr title "tx state, vector"
vector 1 scenario.client0.ppp[1].ppp transmissionState:vector ETV
attr interpolationmode sample-hold
attr source transmissionStateChanged
attr title "tx state, vector"
vector 2 scenario.client0.ppp[2].ppp transmissionState:vector ETV
attr interpolationmode sample-hold
attr source transmissionStateChanged
attr title "tx state, vector"
vector 3 scenario.client0.ppp[3].ppp transmissionState:vector ETV
attr interpolationmode sample-hold
attr source transmissionStateChanged
attr title "tx state, vector"
vector 4 scenario.client1.ppp[0].ppp transmissionState:vector ETV
attr interpolationmode sample-hold
attr source transmissionStateChanged
attr title "tx state, vector"
vector 5 scenario.client1.ppp[1].ppp transmissionState:vector ETV
attr interpolationmode sample-hold
attr source transmissionStateChanged
attr title "tx state, vector"
vector 6 scenario.client1.ppp[2].ppp transmissionState:vector ETV
attr interpolationmode sample-hold
attr source transmissionStateChanged
attr title "tx state, vector"
vector 7 scenario.client1.ppp[3].ppp transmissionState:vector ETV
attr interpolationmode sample-hold
attr source transmissionStateChanged
attr title "tx state, vector"
vector 8 scenario.client2.ppp[0].ppp transmissionState:vector ETV
attr interpolationmode sample-hold
attr source transmissionStateChanged
attr title "tx state, vector"
vector 9 scenario.client2.ppp[1].ppp transmissionState:vector ETV
attr interpolationmode sample-hold
attr source transmissionStateChanged
attr title "tx state, vector"
vector 10 scenario.client2.ppp[2].ppp transmissionState:vector ETV
attr interpolationmode sample-hold
attr source transmissionStateChanged
attr title "tx state, vector"
vector 11 scenario.client2.ppp[3].ppp transmissionState:vector ETV
attr interpolationmode sample-hold
attr source transmissionStateChanged
attr title "tx state, vector"
vector 12 scenario.client3.ppp[0].ppp transmissionState:vector ETV
attr interpolationmode sample-hold
attr source transmissionStateChanged
attr title "tx state, vector"
vector 13 scenario.client3.ppp[1].ppp transmissionState:vector ETV
attr interpolationmode sample-hold
attr source transmissionStateChanged
attr title "tx state, vector"
vector 14 scenario.client3.ppp[2].ppp transmissionState:vector ETV
attr interpolationmode sample-hold
attr source transmissionStateChanged
attr title "tx state, vector"
vector 15 scenario.client3.ppp[3].ppp transmissionState:vector ETV
attr interpolationmode sample-hold
attr source transmissionStateChanged
attr title "tx state, vector"
vector 16 scenario.client4.ppp[0].ppp transmissionState:vector ETV
attr interpolationmode sample-hold
attr source transmissionStateChanged
attr title "tx state, vector"
vector 17 scenario.client4.ppp[1].ppp transmissionState:vector ETV
attr interpolationmode sample-hold
attr source transmissionStateChanged
attr title "tx state, vector"
vector 18 scenario.client4.ppp[2].ppp transmissionState:vector ETV
attr interpolationmode sample-hold
attr source transmissionStateChanged
attr title "tx state, vector"
vector 19 scenario.client4.ppp[3].ppp transmissionState:vector ETV
attr interpolationmode sample-hold
attr source transmissionStateChanged
attr title "tx state, vector"
vector 20 scenario.client4.tcp.conn-25 tcpRcvQueueBytes:vector ETV
attr interpolationmode sample-hold
vector 21 scenario.client4.tcp.conn-25 rcvAdv:vector ETV
attr interpolationmode sample-hold
vector 22 scenario.client4.tcp.conn-25 rcvWnd:vector ETV
attr interpolationmode sample-hold
vector 23 scenario.client4.tcp.conn-25 sndAck:vector ETV
attr interpolationmode sample-hold
vector 24 scenario.client4.ppp[1].ppp rcvdPkFromHl:vector(packetBytes) ETV
attr interpolationmode none
attr source packetReceivedFromUpper
attr title "packets received from higher layer, vector(packetBytes)"
vector 25 scenario.client4.ppp[1].ppp.queue packetPushed:vector(packetBytes) ETV
attr interpolationmode none
attr title "packet pushed, vector(packetBytes)"
vector 26 scenario.client4.ppp[1].ppp.queue queueLength:vector ETV
attr interpolationmode sample-hold
attr source "count(packetPushed) - count(packetPopped) - count(packetRemoved) - count(packetDropped)"
attr title "queue length, vector"
vector 27 scenario.client4.ppp[1].ppp.queue packetPopped:vector(packetBytes) ETV
attr interpolationmode none
attr title "packet popped, vector(packetBytes)"
vector 28 scenario.client4.ppp[1].ppp.queue queueingTime:vector ETV
attr interpolationmode none
attr source queueingTime(packetPopped)
attr title "queueing times, vector"
attr unit s
vector 29 scenario.client4.ppp[1].ppp txPk:vector(packetBytes) ETV
attr interpolationmode none
attr source packetSentToLower
attr title "packets transmitted, vector(packetBytes)"
vector 30 scenario.client1.ppp[3].ppp rxPkOk:vector(packetBytes) ETV
attr interpolationmode none
attr source rxPkOk
attr title "packets received OK, vector(packetBytes)"
vector 31 scenario.client1.ppp[3].ppp passedUpPk:vector(packetBytes) ETV
attr interpolationmode none
attr source packetSentToUpper
attr title "packets passed to higher layer, vector(packetBytes)"
vector 32 scenario.client1.tcp.conn-1 rcvSeq:vector ETV
attr interpolationmode sample-hold
vector 33 scenario.client1.tcp.conn-1 rcvAck:vector ETV
attr interpolationmode sample-hold
vector 34 scenario.client1.tcp.conn-26 rcvAdv:vector ETV
attr interpolationmode sample-hold
vector 35 scenario.client1.tcp.conn-26 sndWnd:vector ETV
attr interpolationmode sample-hold
vector 36 scenario.client1.tcp.conn-26 tcpRcvQueueBytes:vector ETV
attr interpolationmode sample-hold
vector 37 scenario.client1.tcp.conn-26 rcvWnd:vector ETV
attr interpolationmode sample-hold
vector 38 scenario.client1.tcp.conn-26 sndAck:vector ETV
attr interpolationmode sample-hold
vector 39 scenario.client1.ppp[3].ppp rcvdPkFromHl:vector(packetBytes) ETV
attr interpolationmode none
attr source packetReceivedFromUpper
attr title "packets received from higher layer, vector(packetBytes)"
vector 40 scenario.client1.ppp[3].ppp.queue packetPushed:vector(packetBytes) ETV
attr interpolationmode none
attr title "packet pushed, vector(packetBytes)"
vector 41 scenario.client1.ppp[3].ppp.queue queueLength:vector ETV
attr interpolationmode sample-hold
attr source "count(packetPushed) - count(packetPopped) - count(packetRemoved) - count(packetDropped)"
attr title "queue length, vector"
vector 42 scenario.client1.ppp[3].ppp.queue packetPopped:vector(packetBytes) ETV
attr interpolationmode none
attr title "packet popped, vector(packetBytes)"
vector 43 scenario.client1.ppp[3].ppp.queue queueingTime:vector ETV
attr interpolationmode none
attr source queueingTime(packetPopped)
attr title "queueing times, vector"
attr unit s
vector 44 scenario.client1.ppp[3].ppp txPk:vector(packetBytes) ETV
attr interpolationmode none
attr source packetSentToLower
attr title "packets transmitted, vector(packetBytes)"
vector 45 scenario.client4.ppp[1].ppp rxPkOk:vector(packetBytes) ETV
attr interpolationmode none
attr source rxPkOk
attr title "packets received OK, vector(packetBytes)"
vector 46 scenario.client4.ppp[1].ppp passedUpPk:vector(packetBytes) ETV
attr interpolationmode none
attr source packetSentToUpper
attr title "packets passed to higher layer, vector(packetBytes)"
vector 47 scenario.client4.tcp.conn-25 rcvSeq:vector ETV
attr interpolationmode sample-hold
vector 48 scenario.client4.tcp.conn-25 rcvAck:vector ETV
attr interpolationmode sample-hold
vector 49 scenario.client4.tcp.conn-25 sndWnd:vector ETV
attr interpolationmode sample-hold
vector 50 scenario.client4.tcp.conn-25 unacked:vector ETV
attr interpolationmode sample-hold
vector 51 scenario.client1.tcp.conn-26 rcvSeq:vector ETV
attr interpolationmode sample-hold
vector 52 scenario.client1.tcp.conn-26 rcvAck:vector ETV
attr interpolationmode sample-hold
vector 53 scenario.client1.tcp.conn-26 unacked:vector ETV
attr interpolationmode sample-hold
vector 54 scenario.client1.tcp.conn-26 cwnd:vector ETV
attr interpolationmode sample-hold
vector 55 scenario.client1.tcp.conn-26 ssthresh:vector ETV
attr interpolationmode sample-hold
vector 56 scenario.client1.tcp.conn-26 dupAcks:vector ETV
attr interpolationmode sample-hold
vector 57 scenario.client4.tcp.conn-25 rtt:vector ETV
attr interpolationmode sample-hold
vector 58 scenario.client4.tcp.conn-25 srtt:vector ETV
attr interpolationmode sample-hold
vector 59 scenario.client4.tcp.conn-25 rttvar:vector ETV
attr interpolationmode sample-hold
vector 60 scenario.client4.tcp.conn-25 rto:vector ETV
attr interpolationmode sample-hold
vector 61 scenario.client4.tcp.conn-25 cwnd:vector ETV
attr interpolationmode sample-hold
vector 62 scenario.client4.tcp.conn-25 ssthresh:vector ETV
attr interpolationmode sample-hold
vector 63 scenario.client4.tcp.conn-25 dupAcks:vector ETV
attr interpolationmode sample-hold
vector 64 scenario.client4.tcp.conn-27 tcpRcvQueueBytes:vector ETV
attr interpolationmode sample-hold
vector 65 scenario.client4.tcp.conn-27 rcvAdv:vector ETV
attr interpolationmode sample-hold
vector 66 scenario.client4.tcp.conn-27 rcvWnd:vector ETV
attr interpolationmode sample-hold
vector 67 scenario.client4.tcp.conn-27 sndAck:vector ETV
attr interpolationmode sample-hold
vector 68 scenario.client4.ppp[0].ppp rcvdPkFromHl:vector(packetBytes) ETV
attr interpolationmode none
attr source packetReceivedFromUpper
attr title "packets received from higher layer, vector(packetBytes)"
vector 69 scenario.client4.ppp[0].ppp.queue packetPushed:vector(packetBytes) ETV
attr interpolationmode none
attr title "packet pushed, vector(packetBytes)"
vector 70 scenario.client4.ppp[0].ppp.queue queueLength:vector ETV
attr interpolationmode sample-hold
attr source "count(packetPushed) - count(packetPopped) - count(packetRemoved) - count(packetDropped)"
attr title "queue length, vector"
vector 71 scenario.client4.ppp[0].ppp.queue packetPopped:vector(packetBytes) ETV
attr interpolationmode none
attr title "packet popped, vector(packetBytes)"
vector 72 scenario.client4.ppp[0].ppp.queue queueingTime:vector ETV
attr interpolationmode none
attr source queueingTime(packetPopped)
attr title "queueing times, vector"
attr unit s
vector 73 scenario.client4.ppp[0].ppp txPk:vector(packetBytes) ETV
attr interpolationmode none
attr source packetSentToLower
attr title "packets transmitted, vector(packetBytes)"
vector 74 scenario.client0.ppp[3].ppp rxPkOk:vector(packetBytes) ETV
attr interpolationmode none
attr source rxPkOk
attr title "packets received OK, vector(packetBytes)"
vector 75 scenario.client0.ppp[3].ppp passedUpPk:vector(packetBytes) ETV
attr interpolationmode none
attr source packetSentToUpper
attr title "packets passed to higher layer, vector(packetBytes)"
vector 76 scenario.client0.tcp.conn-0 rcvSeq:vector ETV
attr interpolationmode sample-hold
vector 77 scenario.client0.tcp.conn-0 rcvAck:vector ETV
attr interpolationmode sample-hold
vector 78 scenario.client0.tcp.conn-28 rcvAdv:vector ETV
attr interpolationmode sample-hold
vector 79 scenario.client0.tcp.conn-28 sndWnd:vector ETV
attr interpolationmode sample-hold
vector 80 scenario.client0.tcp.conn-28 tcpRcvQueueBytes:vector ETV
attr interpolationmode sample-hold
vector 81 scenario.client0.tcp.conn-28 rcvWnd:vector ETV
attr interpolationmode sample-hold
vector 82 scenario.client0.tcp.conn-28 sndAck:vector ETV
attr interpolationmode sample-hold
vector 83 scenario.client0.ppp[3].ppp rcvdPkFromHl:vector(packetBytes) ETV
attr interpolationmode none
attr source packetReceivedFromUpper
attr title "packets received from higher layer, vector(packetBytes)"
vector 84 scenario.client0.ppp[3].ppp.queue packetPushed:vector(packetBytes) ETV
attr interpolationmode none
attr title "packet pushed, vector(packetBytes)"
vector 85 scenario.client0.ppp[3].ppp.queue queueLength:vector ETV
attr interpolationmode sample-hold
attr source "count(packetPushed) - count(packetPopped) - count(packetRemoved) - count(packetDropped)"
attr title "queue length, vector"
vector 86 scenario.client0.ppp[3].ppp.queue packetPopped:vector(packetBytes) ETV
attr interpolationmode none
attr title "packet popped, vector(packetBytes)"
vector 87 scenario.client0.ppp[3].ppp.queue queueingTime:vector ETV
attr interpolationmode none
attr source queueingTime(packetPopped)
attr title "queueing times, vector"
attr unit s
vector 88 scenario.client0.ppp[3].ppp txPk:vector(packetBytes) ETV
attr interpolationmode none
attr source packetSentToLower
attr title "packets transmitted, vector(packetBytes)"
vector 89 scenario.client4.ppp[0].ppp rxPkOk:vector(packetBytes) ETV
attr interpolationmode none
attr source rxPkOk
attr title "packets received OK, vector(packetBytes)"
vector 90 scenario.client4.ppp[0].ppp passedUpPk:vector(packetBytes) ETV
attr interpolationmode none
attr source packetSentToUpper
attr title "packets passed to higher layer, vector(packetBytes)"
vector 91 scenario.client4.tcp.conn-27 rcvSeq:vector ETV
attr interpolationmode sample-hold
vector 92 scenario.client4.tcp.conn-27 rcvAck:vector ETV
attr interpolationmode sample-hold
vector 93 scenario.client4.tcp.conn-27 sndWnd:vector ETV
attr interpolationmode sample-hold
vector 94 scenario.client4.tcp.conn-27 unacked:vector ETV
attr interpolationmode sample-hold
vector 95 scenario.client0.tcp.conn-28 rcvSeq:vector ETV
attr interpolationmode sample-hold
vector 96 scenario.client0.tcp.conn-28 rcvAck:vector ETV
attr interpolationmode sample-hold
vector 97 scenario.client0.tcp.conn-28 unacked:vector ETV
attr interpolationmode sample-hold
vector 98 scenario.client0.tcp.conn-28 cwnd:vector ETV
attr interpolationmode sample-hold
vector 99 scenario.client0.tcp.conn-28 ssthresh:vector ETV
attr interpolationmode sample-hold
vector 100 scenario.client0.tcp.conn-28 dupAcks:vector ETV
attr interpolationmode sample-hold
vector 101 scenario.client4.tcp.conn-27 rtt:vector ETV
attr interpolationmode sample-hold
vector 102 scenario.client4.tcp.conn-27 srtt:vector ETV
attr interpolationmode sample-hold
vector 103 scenario.client4.tcp.conn-27 rttvar:vector ETV
attr interpolationmode sample-hold
vector 104 scenario.client4.tcp.conn-27 rto:vector ETV
attr interpolationmode sample-hold
vector 105 scenario.client4.tcp.conn-27 cwnd:vector ETV
attr interpolationmode sample-hold
vector 106 scenario.client4.tcp.conn-27 ssthresh:vector ETV
attr interpolationmode sample-hold
vector 107 scenario.client4.tcp.conn-27 dupAcks:vector ETV
attr interpolationmode sample-hold
vector 108 scenario.client0.tcp.conn-29 tcpRcvQueueBytes:vector ETV
attr interpolationmode sample-hold
vector 109 scenario.client0.tcp.conn-29 rcvAdv:vector ETV
attr interpolationmode sample-hold
vector 110 scenario.client0.tcp.conn-29 rcvWnd:vector ETV
attr interpolationmode sample-hold
vector 111 scenario.client0.tcp.conn-29 sndAck:vector ETV
attr interpolationmode sample-hold
vector 112 scenario.client4.tcp.conn-4 rcvSeq:vector ETV
attr interpolationmode sample-hold
vector 113 scenario.client4.tcp.conn-4 rcvAck:vector ETV
attr interpolationmode sample-hold
vector 114 scenario.client4.tcp.conn-30 rcvAdv:vector ETV
attr interpolationmode sample-hold
vector 115 scenario.client4.tcp.conn-30 sndWnd:vector ETV
attr interpolationmode sample-hold
vector 116 scenario.client4.tcp.conn-30 tcpRcvQueueBytes:vector ETV
attr interpolationmode sample-hold
vector 117 scenario.client4.tcp.conn-30 rcvWnd:vector ETV
attr interpolationmode sample-hold
vector 118 scenario.client4.tcp.conn-30 sndAck:vector ETV
attr interpolationmode sample-hold
vector 119 scenario.client3.tcp.conn-31 tcpRcvQueueBytes:vector ETV
attr interpolationmode sample-hold
vector 120 scenario.client3.tcp.conn-31 rcvAdv:vector ETV
attr interpolationmode sample-hold
vector 121 scenario.client3.tcp.conn-31 rcvWnd:vector ETV
attr interpolationmode sample-hold
vector 122 scenario.client3.tcp.conn-31 sndAck:vector ETV
attr interpolationmode sample-hold
vector 123 scenario.client3.ppp[2].ppp rcvdPkFromHl:vector(packetBytes) ETV
attr interpolationmode none
attr source packetReceivedFromUpper
attr title "packets received from higher layer, vector(packetBytes)"
vector 124 scenario.client3.ppp[2].ppp.queue packetPushed:vector(packetBytes) ETV
attr interpolationmode none
attr title "packet pushed, vector(packetBytes)"
vector 125 scenario.client3.ppp[2].ppp.queue queueLength:vector ETV
attr interpolationmode sample-hold
attr source "count(packetPushed) - count(packetPopped) - count(packetRemoved) - count(packetDropped)"
attr title "queue length, vector"
vector 126 scenario.client3.ppp[2].ppp.queue packetPopped:vector(packetBytes) ETV
attr interpolationmode none
attr title "packet popped, vector(packetBytes)"
vector 127 scenario.client3.ppp[2].ppp.queue queueingTime:vector ETV
attr interpolationmode none
attr source queueingTime(packetPopped)
attr title "queueing times, vector"
attr unit s
vector 128 scenario.client3.ppp[2].ppp txPk:vector(packetBytes) ETV
attr interpolationmode none
attr source packetSentToLower
attr title "packets transmitted, vector(packetBytes)"
vector 129 scenario.client0.tcp.conn-29 rcvSeq:vector ETV
attr interpolationmode sample-hold
vector 130 scenario.client0.tcp.conn-29 rcvAck:vector ETV
attr interpolationmode sample-hold
vector 131 scenario.client0.tcp.conn-29 sndWnd:vector ETV
attr interpolationmode sample-hold
vector 132 scenario.client0.tcp.conn-29 unacked:vector ETV
attr interpolationmode sample-hold
vector 133 scenario.client2.ppp[2].ppp rxPkOk:vector(packetBytes) ETV
attr interpolationmode none
attr source rxPkOk
attr title "packets received OK, vector(packetBytes)"
vector 134 scenario.client2.ppp[2].ppp passedUpPk:vector(packetBytes) ETV
attr interpolationmode none
attr source packetSentToUpper
attr title "packets passed to higher layer, vector(packetBytes)"
vector 135 scenario.client2.tcp.conn-2 rcvSeq:vector ETV
attr interpolationmode sample-hold
vector 136 scenario.client2.tcp.conn-2 rcvAck:vector ETV
attr interpolationmode sample-hold
vector 137 scenario.client2.tcp.conn-32 rcvAdv:vector ETV
attr interpolationmode sample-hold
vector 138 scenario.client2.tcp.conn-32 sndWnd:vector ETV
attr interpolationmode sample-hold
vector 139 scenario.client2.tcp.conn-32 tcpRcvQueueBytes:vector ETV
attr interpolationmode sample-hold
vector 140 scenario.client2.tcp.conn-32 rcvWnd:vector ETV
attr interpolationmode sample-hold
vector 141 scenario.client2.tcp.conn-32 sndAck:vector ETV
attr interpolationmode sample-hold
vector 142 scenario.client2.ppp[2].ppp rcvdPkFromHl:vector(packetBytes) ETV
attr interpolationmode none
attr source packetReceivedFromUpper
attr title "packets received from higher layer, vector(packetBytes)"
vector 143 scenario.client2.ppp[2].ppp.queue packetPushed:vector(packetBytes) ETV
attr interpolationmode none
attr title "packet pushed, vector(packetBytes)"
vector 144 scenario.client2.ppp[2].ppp.queue queueLength:vector ETV
attr interpolationmode sample-hold
attr source "count(packetPushed) - count(packetPopped) - count(packetRemoved) - count(packetDropped)"
attr title "queue length, vector"
vector 145 scenario.client2.ppp[2].ppp.queue packetPopped:vector(packetBytes) ETV
attr interpolationmode none
attr title "packet popped, vector(packetBytes)"
vector 146 scenario.client2.ppp[2].ppp.queue queueingTime:vector ETV
attr interpolationmode none
attr source queueingTime(packetPopped)
attr title "queueing times, vector"
attr unit s
vector 147 scenario.client2.ppp[2].ppp txPk:vector(packetBytes) ETV
attr interpolationmode none
attr source packetSentToLower
attr title "packets transmitted, vector(packetBytes)"
vector 148 scenario.client4.tcp.conn-30 rcvSeq:vector ETV
attr interpolationmode sample-hold
vector 149 scenario.client4.tcp.conn-30 rcvAck:vector ETV
attr interpolationmode sample-hold
vector 150 scenario.client4.tcp.conn-30 unacked:vector ETV
attr interpolationmode sample-hold
vector 151 scenario.client4.tcp.conn-30 cwnd:vector ETV
attr interpolationmode sample-hold
vector 152 scenario.client4.tcp.conn-30 ssthresh:vector ETV
attr interpolationmode sample-hold
vector 153 scenario.client4.tcp.conn-30 dupAcks:vector ETV
attr interpolationmode sample-hold
vector 154 scenario.client3.ppp[2].ppp rxPkOk:vector(packetBytes) ETV
attr interpolationmode none
attr source rxPkOk
attr title "packets received OK, vector(packetBytes)"
vector 155 scenario.client3.ppp[2].ppp passedUpPk:vector(packetBytes) ETV
attr interpolationmode none
attr source packetSentToUpper
attr title "packets passed to higher layer, vector(packetBytes)"
vector 156 scenario.client3.tcp.conn-31 rcvSeq:vector ETV
attr interpolationmode sample-hold
vector 157 scenario.client3.tcp.conn-31 rcvAck:vector ETV
attr interpolationmode sample-hold
vector 158 scenario.client3.tcp.conn-31 sndWnd:vector ETV
attr interpolationmode sample-hold
vector 159 scenario.client3.tcp.conn-31 unacked:vector ETV
attr interpolationmode sample-hold
vector 160 scenario.client0.tcp.conn-29 rtt:vector ETV
attr interpolationmode sample-hold
vector 161 scenario.client0.tcp.conn-29 srtt:vector ETV
attr interpolationmode sample-hold
vector 162 scenario.client0.tcp.conn-29 rttvar:vector ETV
attr interpolationmode sample-hold
vector 163 scenario.client0.tcp.conn-29 rto:vector ETV
attr interpolationmode sample-hold
vector 164 scenario.client0.tcp.conn-29 cwnd:vector ETV
attr interpolationmode sample-hold
vector 165 scenario.client0.tcp.conn-29 ssthresh:vector ETV
attr interpolationmode sample-hold
vector 166 scenario.client0.tcp.conn-29 dupAcks:vector ETV
attr interpolationmode sample-hold
vector 167 scenario.client2.tcp.conn-32 rcvSeq:vector ETV
attr interpolationmode sample-hold
vector 168 scenario.client2.tcp.conn-32 rcvAck:vector ETV
attr interpolationmode sample-hold
vector 169 scenario.client2.tcp.conn-32 unacked:vector ETV
attr interpolationmode sample-hold
vector 170 scenario.client2.tcp.conn-32 cwnd:vector ETV
attr interpolationmode sample-hold
vector 171 scenario.client2.tcp.conn-32 ssthresh:vector ETV
attr interpolationmode sample-hold
vector 172 scenario.client2.tcp.conn-32 dupAcks:vector ETV
attr interpolationmode sample-hold
vector 173 scenario.client3.tcp.conn-31 rtt:vector ETV
attr interpolationmode sample-hold
vector 174 scenario.client3.tcp.conn-31 srtt:vector ETV
attr interpolationmode sample-hold
vector 175 scenario.client3.tcp.conn-31 rttvar:vector ETV
attr interpolationmode sample-hold
vector 176 scenario.client3.tcp.conn-31 rto:vector ETV
attr interpolationmode sample-hold
vector 177 scenario.client3.tcp.conn-31 cwnd:vector ETV
attr interpolationmode sample-hold
vector 178 scenario.client3.tcp.conn-31 ssthresh:vector ETV
attr interpolationmode sample-hold
vector 179 scenario.client3.tcp.conn-31 dupAcks:vector ETV
attr interpolationmode sample-hold
vector 180 scenario.client2.tcp.conn-33 tcpRcvQueueBytes:vector ETV
attr interpolationmode sample-hold
vector 181 scenario.client2.tcp.conn-33 rcvAdv:vector ETV
attr interpolationmode sample-hold
vector 182 scenario.client2.tcp.conn-33 rcvWnd:vector ETV
attr interpolationmode sample-hold
vector 183 scenario.client2.tcp.conn-33 sndAck:vector ETV
attr interpolationmode sample-hold
vector 184 scenario.client3.tcp.conn-3 rcvSeq:vector ETV
attr interpolationmode sample-hold
vector 185 scenario.client3.tcp.conn-3 rcvAck:vector ETV
attr interpolationmode sample-hold
vector 186 scenario.client3.tcp.conn-34 rcvAdv:vector ETV
attr interpolationmode sample-hold
vector 187 scenario.client3.tcp.conn-34 sndWnd:vector ETV
attr interpolationmode sample-hold
vector 188 scenario.client3.tcp.conn-34 tcpRcvQueueBytes:vector ETV
attr interpolationmode sample-hold
vector 189 scenario.client3.tcp.conn-34 rcvWnd:vector ETV
attr interpolationmode sample-hold
vector 190 scenario.client3.tcp.conn-34 sndAck:vector ETV
attr interpolationmode sample-hold
vector 191 scenario.client2.tcp.conn-33 rcvSeq:vector ETV
attr interpolationmode sample-hold
vector 192 scenario.client2.tcp.conn-33 rcvAck:vector ETV
attr interpolationmode sample-hold
vector 193 scenario.client2.tcp.conn-33 sndWnd:vector ETV
attr interpolationmode sample-hold
vector 194 scenario.client2.tcp.conn-33 unacked:vector ETV
attr interpolationmode sample-hold
vector 195 scenario.client3.tcp.conn-34 rcvSeq:vector ETV
attr interpolationmode sample-hold
vector 196 scenario.client3.tcp.conn-34 rcvAck:vector ETV
attr interpolationmode sample-hold
vector 197 scenario.client3.tcp.conn-34 unacked:vector ETV
attr interpolationmode sample-hold
vector 198 scenario.client3.tcp.conn-34 cwnd:vector ETV
attr interpolationmode sample-hold
vector 199 scenario.client3.tcp.conn-34 ssthresh:vector ETV
attr interpolationmode sample-hold
vector 200 scenario.client3.tcp.conn-34 dupAcks:vector ETV
attr interpolationmode sample-hold
vector 201 scenario.client2.tcp.conn-33 rtt:vector ETV
attr interpolationmode sample-hold
vector 202 scenario.client2.tcp.conn-33 srtt:vector ETV
attr interpolationmode sample-hold
vector 203 scenario.client2.tcp.conn-33 rttvar:vector ETV
attr interpolationmode sample-hold
vector 204 scenario.client2.tcp.conn-33 rto:vector ETV
attr interpolationmode sample-hold
vector 205 scenario.client2.tcp.conn-33 cwnd:vector ETV
attr interpolationmode sample-hold
vector 206 scenario.client2.tcp.conn-33 ssthresh:vector ETV
attr interpolationmode sample-hold
vector 207 scenario.client2.tcp.conn-33 dupAcks:vector ETV
attr interpolationmode sample-hold
vector 208 scenario.client1.tcp.conn-35 tcpRcvQueueBytes:vector ETV
attr interpolationmode sample-hold
vector 209 scenario.client1.tcp.conn-35 rcvAdv:vector ETV
attr interpolationmode sample-hold
vector 210 scenario.client1.tcp.conn-35 rcvWnd:vector ETV
attr interpolationmode sample-hold
vector 211 scenario.client1.tcp.conn-35 sndAck:vector ETV
attr interpolationmode sample-hold
vector 212 scenario.client4.tcp.conn-36 rcvAdv:vector ETV
attr interpolationmode sample-hold
vector 213 scenario.client4.tcp.conn-36 sndWnd:vector ETV
attr interpolationmode sample-hold
vector 214 scenario.client4.tcp.conn-36 tcpRcvQueueBytes:vector ETV
attr interpolationmode sample-hold
vector 215 scenario.client4.tcp.conn-36 rcvWnd:vector ETV
attr interpolationmode sample-hold
vector 216 scenario.client4.tcp.conn-36 sndAck:vector ETV
attr interpolationmode sample-hold
vector 217 scenario.client1.tcp.conn-35 rcvSeq:vector ETV
attr interpolationmode sample-hold
vector 218 scenario.client1.tcp.conn-35 rcvAck:vector ETV
attr interpolationmode sample-hold
vector 219 scenario.client1.tcp.conn-35 sndWnd:vector ETV
attr interpolationmode sample-hold
vector 220 scenario.client1.tcp.conn-35 unacked:vector ETV
attr interpolationmode sample-hold
vector 221 scenario.client4.tcp.conn-36 rcvSeq:vector ETV
attr interpolationmode sample-hold
vector 222 scenario.client4.tcp.conn-36 rcvAck:vector ETV
attr interpolationmode sample-hold
vector 223 scenario.client4.tcp.conn-36 unacked:vector ETV
attr interpolationmode sample-hold
vector 224 scenario.client4.tcp.conn-36 cwnd:vector ETV
attr interpolationmode sample-hold
vector 225 scenario.client4.tcp.conn-36 ssthresh:vector ETV
attr interpolationmode sample-hold
vector 226 scenario.client4.tcp.conn-36 dupAcks:vector ETV
attr interpolationmode sample-hold
vector 227 scenario.client1.tcp.conn-35 rtt:vector ETV
attr interpolationmode sample-hold
vector 228 scenario.client1.tcp.conn-35 srtt:vector ETV
attr interpolationmode sample-hold
vector 229 scenario.client1.tcp.conn-35 rttvar:vector ETV
attr interpolationmode sample-hold
vector 230 scenario.client1.tcp.conn-35 rto:vector ETV
attr interpolationmode sample-hold
vector 231 scenario.client1.tcp.conn-35 cwnd:vector ETV
attr interpolationmode sample-hold
vector 232 scenario.client1.tcp.conn-35 ssthresh:vector ETV
attr interpolationmode sample-hold
vector 233 scenario.client1.tcp.conn-35 dupAcks:vector ETV
attr interpolationmode sample-hold
vector 234 scenario.client4.tcp.conn-37 tcpRcvQueueBytes:vector ETV
attr interpolationmode sample-hold
vector 235 scenario.client4.tcp.conn-37 rcvAdv:vector ETV
attr interpolationmode sample-hold
vector 236 scenario.client4.tcp.conn-37 rcvWnd:vector ETV
attr interpolationmode sample-hold
vector 237 scenario.client4.tcp.conn-37 sndAck:vector ETV
attr interpolationmode sample-hold
vector 238 scenario.client4.ppp[2].ppp rcvdPkFromHl:vector(packetBytes) ETV
attr interpolationmode none
attr source packetReceivedFromUpper
attr title "packets received from higher layer, vector(packetBytes)"
vector 239 scenario.client4.ppp[2].ppp.queue packetPushed:vector(packetBytes) ETV
attr interpolationmode none
attr title "packet pushed, vector(packetBytes)"
vector 240 scenario.client4.ppp[2].ppp.queue queueLength:vector ETV
attr interpolationmode sample-hold
attr source "count(packetPushed) - count(packetPopped) - count(packetRemoved) - count(packetDropped)"
attr title "queue length, vector"
vector 241 scenario.client4.ppp[2].ppp.queue packetPopped:vector(packetBytes) ETV
attr interpolationmode none
attr title "packet popped, vector(packetBytes)"
vector 242 scenario.client4.ppp[2].ppp.queue queueingTime:vector ETV
attr interpolationmode none
attr source queueingTime(packetPopped)
attr title "queueing times, vector"
attr unit s
vector 243 scenario.client4.ppp[2].ppp txPk:vector(packetBytes) ETV
attr interpolationmode none
attr source packetSentToLower
attr title "packets transmitted, vector(packetBytes)"
vector 244 scenario.client2.ppp[3].ppp rxPkOk:vector(packetBytes) ETV
attr interpolationmode none
attr source rxPkOk
attr title "packets received OK, vector(packetBytes)"
vector 245 scenario.client2.ppp[3].ppp passedUpPk:vector(packetBytes) ETV
attr interpolationmode none
attr source packetSentToUpper
attr title "packets passed to higher layer, vector(packetBytes)"
vector 246 scenario.client2.tcp.conn-38 rcvAdv:vector ETV
attr interpolationmode sample-hold
vector 247 scenario.client2.tcp.conn-38 sndWnd:vector ETV
attr interpolationmode sample-hold
vector 248 scenario.client2.tcp.conn-38 tcpRcvQueueBytes:vector ETV
attr interpolationmode sample-hold
vector 249 scenario.client2.tcp.conn-38 rcvWnd:vector ETV
attr interpolationmode sample-hold
vector 250 scenario.client2.tcp.conn-38 sndAck:vector ETV
attr interpolationmode sample-hold
vector 251 scenario.client2.ppp[3].ppp rcvdPkFromHl:vector(packetBytes) ETV
attr interpolationmode none
attr source packetReceivedFromUpper
attr title "packets received from higher layer, vector(packetBytes)"
vector 252 scenario.client2.ppp[3].ppp.queue packetPushed:vector(packetBytes) ETV
attr interpolationmode none
attr title "packet pushed, vector(packetBytes)"
vector 253 scenario.client2.ppp[3].ppp.queue queueLength:vector ETV
attr interpolationmode sample-hold
attr source "count(packetPushed) - count(packetPopped) - count(packetRemoved) - count(packetDropped)"
attr title "queue length, vector"
vector 254 scenario.client2.ppp[3].ppp.queue packetPopped:vector(packetBytes) ETV
attr interpolationmode none
attr title "packet popped, vector(packetBytes)"
vector 255 scenario.client2.ppp[3].ppp.queue queueingTime:vector ETV
attr interpolationmode none
attr source queueingTime(packetPopped)
attr title "queueing times, vector"
attr unit s
vector 256 scenario.client2.ppp[3].ppp txPk:vector(packetBytes) ETV
attr interpolationmode none
attr source packetSentToLower
attr title "packets transmitted, vector(packetBytes)"
vector 257 scenario.client4.ppp[2].ppp rxPkOk:vector(packetBytes) ETV
attr interpolationmode none
attr source rxPkOk
attr title "packets received OK, vector(packetBytes)"
vector 258 scenario.client4.ppp[2].ppp passedUpPk:vector(packetBytes) ETV
attr interpolationmode none
attr source packetSentToUpper
attr title "packets passed to higher layer, vector(packetBytes)"
vector 259 scenario.client4.tcp.conn-37 rcvSeq:vector ETV
attr interpolationmode sample-hold
vector 260 scenario.client4.tcp.conn-37 rcvAck:vector ETV
attr interpolationmode sample-hold
vector 261 scenario.client4.tcp.conn-37 sndWnd:vector ETV
attr interpolationmode sample-hold
vector 262 scenario.client4.tcp.conn-37 unacked:vector ETV
attr interpolationmode sample-hold
vector 263 scenario.client2.tcp.conn-38 rcvSeq:vector ETV
attr interpolationmode sample-hold
vector 264 scenario.client2.tcp.conn-38 rcvAck:vector ETV
attr interpolationmode sample-hold
vector 265 scenario.client2.tcp.conn-38 unacked:vector ETV
attr interpolationmode sample-hold
vector 266 scenario.client2.tcp.conn-38 cwnd:vector ETV
attr interpolationmode sample-hold
vector 267 scenario.client2.tcp.conn-38 ssthresh:vector ETV
attr interpolationmode sample-hold
vector 268 scenario.client2.tcp.conn-38 dupAcks:vector ETV
attr interpolationmode sample-hold
vector 269 scenario.client4.tcp.conn-37 rtt:vector ETV
attr interpolationmode sample-hold
vector 270 scenario.client4.tcp.conn-37 srtt:vector ETV
attr interpolationmode sample-hold
vector 271 scenario.client4.tcp.conn-37 rttvar:vector ETV
attr interpolationmode sample-hold
vector 272 scenario.client4.tcp.conn-37 rto:vector ETV
attr interpolationmode sample-hold
vector 273 scenario.client4.tcp.conn-37 cwnd:vector ETV
attr interpolationmode sample-hold
vector 274 scenario.client4.tcp.conn-37 ssthresh:vector ETV
attr interpolationmode sample-hold
vector 275 scenario.client4.tcp.conn-37 dupAcks:vector ETV
attr interpolationmode sample-hold
vector 276 scenario.client3.tcp.conn-39 tcpRcvQueueBytes:vector ETV
attr interpolationmode sample-hold
vector 277 scenario.client3.tcp.conn-39 rcvAdv:vector ETV
attr interpolationmode sample-hold
vector 278 scenario.client3.tcp.conn-39 rcvWnd:vector ETV
attr interpolationmode sample-hold
vector 279 scenario.client3.tcp.conn-39 sndAck:vector ETV
attr interpolationmode sample-hold
vector 280 scenario.client3.ppp[0].ppp rcvdPkFromHl:vector(packetBytes) ETV
attr interpolationmode none
attr source packetReceivedFromUpper
attr title "packets received from higher layer, vector(packetBytes)"
vector 281 scenario.client3.ppp[0].ppp.queue packetPushed:vector(packetBytes) ETV
attr interpolationmode none
attr title "packet pushed, vector(packetBytes)"
vector 282 scenario.client3.ppp[0].ppp.queue queueLength:vector ETV
attr interpolationmode sample-hold
attr source "count(packetPushed) - count(packetPopped) - count(packetRemoved) - count(packetDropped)"
attr title "queue length, vector"
vector 283 scenario.client3.ppp[0].ppp.queue packetPopped:vector(packetBytes) ETV
attr interpolationmode none
attr title "packet popped, vector(packetBytes)"
vector 284 scenario.client3.ppp[0].ppp.queue queueingTime:vector ETV
attr interpolationmode none
attr source queueingTime(packetPopped)
attr title "queueing times, vector"
attr unit s
vector 285 scenario.client3.ppp[0].ppp txPk:vector(packetBytes) ETV
attr interpolationmode none
attr source packetSentToLower
attr title "packets transmitted, vector(packetBytes)"
vector 286 scenario.client0.ppp[2].ppp rxPkOk:vector(packetBytes) ETV
attr interpolationmode none
attr source rxPkOk
attr title "packets received OK, vector(packetBytes)"
vector 287 scenario.client0.ppp[2].ppp passedUpPk:vector(packetBytes) ETV
attr interpolationmode none
attr source packetSentToUpper
attr title "packets passed to higher layer, vector(packetBytes)"
vector 288 scenario.client0.tcp.conn-40 rcvAdv:vector ETV
attr interpolationmode sample-hold
vector 289 scenario.client0.tcp.conn-40 sndWnd:vector ETV
attr interpolationmode sample-hold
vector 290 scenario.client0.tcp.conn-40 tcpRcvQueueBytes:vector ETV
attr interpolationmode sample-hold
vector 291 scenario.client0.tcp.conn-40 rcvWnd:vector ETV
attr interpolationmode sample-hold
vector 292 scenario.client0.tcp.conn-40 sndAck:vector ETV
attr interpolationmode sample-hold
vector 293 scenario.client0.ppp[2].ppp rcvdPkFromHl:vector(packetBytes) ETV
attr interpolationmode none
attr source packetReceivedFromUpper
attr title "packets received from higher layer, vector(packetBytes)"
vector 294 scenario.client0.ppp[2].ppp.queue packetPushed:vector(packetBytes) ETV
attr interpolationmode none
attr title "packet pushed, vector(packetBytes)"
vector 295 scenario.client0.ppp[2].ppp.queue queueLength:vector ETV
attr interpolationmode sample-hold
attr source "count(packetPushed) - count(packetPopped) - count(packetRemoved) - count(packetDropped)"
attr title "queue length, vector"
vector 296 scenario.client0.ppp[2].ppp.queue packetPopped:vector(packetBytes) ETV
attr interpolationmode none
attr title "packet popped, vector(packetBytes)"
vector 297 scenario.client0.ppp[2].ppp.queue queueingTime:vector ETV
attr interpolationmode none
attr source queueingTime(packetPopped)
attr title "queueing times, vector"
attr unit s
vector 298 scenario.client0.ppp[2].ppp txPk:vector(packetBytes) ETV
attr interpolationmode none
attr source packetSentToLower
attr title "packets transmitted, vector(packetBytes)"
vector 299 scenario.client3.ppp[0].ppp rxPkOk:vector(packetBytes) ETV
attr interpolationmode none
attr source rxPkOk
attr title "packets received OK, vector(packetBytes)"
vector 300 scenario.client3.ppp[0].ppp passedUpPk:vector(packetBytes) ETV
attr interpolationmode none
attr source packetSentToUpper
attr title "packets passed to higher layer, vector(packetBytes)"
vector 301 scenario.client3.tcp.conn-39 rcvSeq:vector ETV
attr interpolationmode sample-hold
vector 302 scenario.client3.tcp.conn-39 rcvAck:vector ETV
attr interpolationmode sample-hold
vector 303 scenario.client3.tcp.conn-39 sndWnd:vector ETV
attr interpolationmode sample-hold
vector 304 scenario.client3.tcp.conn-39 unacked:vector ETV
attr interpolationmode sample-hold
vector 305 scenario.client0.tcp.conn-40 rcvSeq:vector ETV
attr interpolationmode sample-hold
vector 306 scenario.client0.tcp.conn-40 rcvAck:vector ETV
attr interpolationmode sample-hold
vector 307 scenario.client0.tcp.conn-40 unacked:vector ETV
attr interpolationmode sample-hold
vector 308 scenario.client0.tcp.conn-40 cwnd:vector ETV
attr interpolationmode sample-hold
vector 309 scenario.client0.tcp.conn-40 ssthresh:vector ETV
attr interpolationmode sample-hold
vector 310 scenario.client0.tcp.conn-40 dupAcks:vector ETV
attr interpolationmode sample-hold
vector 311 scenario.client3.tcp.conn-39 rtt:vector ETV
attr interpolationmode sample-hold
vector 312 scenario.client3.tcp.conn-39 srtt:vector ETV
attr interpolationmode sample-hold
vector 313 scenario.client3.tcp.conn-39 rttvar:vector ETV
attr interpolationmode sample-hold
vector 314 scenario.client3.tcp.conn-39 rto:vector ETV
attr interpolationmode sample-hold
vector 315 scenario.client3.tcp.conn-39 cwnd:vector ETV
attr interpolationmode sample-hold
vector 316 scenario.client3.tcp.conn-39 ssthresh:vector ETV
attr interpolationmode sample-hold
vector 317 scenario.client3.tcp.conn-39 dupAcks:vector ETV
attr interpolationmode sample-hold
vector 318 scenario.client3.tcp.conn-41 tcpRcvQueueBytes:vector ETV
attr interpolationmode sample-hold
vector 319 scenario.client3.tcp.conn-41 rcvAdv:vector ETV
attr interpolationmode sample-hold
vector 320 scenario.client3.tcp.conn-41 rcvWnd:vector ETV
attr interpolationmode sample-hold
vector 321 scenario.client3.tcp.conn-41 sndAck:vector ETV
attr interpolationmode sample-hold
vector 322 scenario.client3.ppp[1].ppp rcvdPkFromHl:vector(packetBytes) ETV
attr interpolationmode none
attr source packetReceivedFromUpper
attr title "packets received from higher layer, vector(packetBytes)"
vector 323 scenario.client3.ppp[1].ppp.queue packetPushed:vector(packetBytes) ETV
attr interpolationmode none
attr title "packet pushed, vector(packetBytes)"
vector 324 scenario.client3.ppp[1].ppp.queue queueLength:vector ETV
attr interpolationmode sample-hold
attr source "count(packetPushed) - count(packetPopped) - count(packetRemoved) - count(packetDropped)"
attr title "queue length, vector"
vector 325 scenario.client3.ppp[1].ppp.queue packetPopped:vector(packetBytes) ETV
attr interpolationmode none
attr title "packet popped, vector(packetBytes)"
vector 326 scenario.client3.ppp[1].ppp.queue queueingTime:vector ETV
attr interpolationmode none
attr source queueingTime(packetPopped)
attr title "queueing times, vector"
attr unit s
vector 327 scenario.client3.ppp[1].ppp txPk:vector(packetBytes) ETV
attr interpolationmode none
attr source packetSentToLower
attr title "packets transmitted, vector(packetBytes)"
vector 328 scenario.client1.ppp[2].ppp rxPkOk:vector(packetBytes) ETV
attr interpolationmode none
attr source rxPkOk
attr title "packets received OK, vector(packetBytes)"
vector 329 scenario.client1.ppp[2].ppp passedUpPk:vector(packetBytes) ETV
attr interpolationmode none
attr source packetSentToUpper
attr title "packets passed to higher layer, vector(packetBytes)"
vector 330 scenario.client1.tcp.conn-42 rcvAdv:vector ETV
attr interpolationmode sample-hold
vector 331 scenario.client1.tcp.conn-42 sndWnd:vector ETV
attr interpolationmode sample-hold
vector 332 scenario.client1.tcp.conn-42 tcpRcvQueueBytes:vector ETV
attr interpolationmode sample-hold
vector 333 scenario.client1.tcp.conn-42 rcvWnd:vector ETV
attr interpolationmode sample-hold
vector 334 scenario.client1.tcp.conn-42 sndAck:vector ETV
attr interpolationmode sample-hold
vector 335 scenario.client1.ppp[2].ppp rcvdPkFromHl:vector(packetBytes) ETV
attr interpolationmode none
attr source packetReceivedFromUpper
attr title "packets received from higher layer, vector(packetBytes)"
vector 336 scenario.client1.ppp[2].ppp.queue packetPushed:vector(packetBytes) ETV
attr interpolationmode none
attr title "packet pushed, vector(packetBytes)"
vector 337 scenario.client1.ppp[2].ppp.queue queueLength:vector ETV
attr interpolationmode sample-hold
attr source "count(packetPushed) - count(packetPopped) - count(packetRemoved) - count(packetDropped)"
attr title "queue length, vector"
vector 338 scenario.client1.ppp[2].ppp.queue packetPopped:vector(packetBytes) ETV
attr interpolationmode none
attr title "packet popped, vector(packetBytes)"
vector 339 scenario.client1.ppp[2].ppp.queue queueingTime:vector ETV
attr interpolationmode none
attr source queueingTime(packetPopped)
attr title "queueing times, vector"
attr unit s
vector 340 scenario.client1.ppp[2].ppp txPk:vector(packetBytes) ETV
attr interpolationmode none
attr source packetSentToLower
attr title "packets transmitted, vector(packetBytes)"
vector 341 scenario.client3.ppp[1].ppp rxPkOk:vector(packetBytes) ETV
attr interpolationmode none
attr source rxPkOk
attr title "packets received OK, vector(packetBytes)"
vector 342 scenario.client3.ppp[1].ppp passedUpPk:vector(packetBytes) ETV
attr interpolationmode none
attr source packetSentToUpper
attr title "packets passed to higher layer, vector(packetBytes)"
vector 343 scenario.client3.tcp.conn-41 rcvSeq:vector ETV
attr interpolationmode sample-hold
vector 344 scenario.client3.tcp.conn-41 rcvAck:vector ETV
attr interpolationmode sample-hold
vector 345 scenario.client3.tcp.conn-41 sndWnd:vector ETV
attr interpolationmode sample-hold
vector 346 scenario.client3.tcp.conn-41 unacked:vector ETV
attr interpolationmode sample-hold
vector 347 scenario.client1.tcp.conn-42 rcvSeq:vector ETV
attr interpolationmode sample-hold
vector 348 scenario.client1.tcp.conn-42 rcvAck:vector ETV
attr interpolationmode sample-hold
vector 349 scenario.client1.tcp.conn-42 unacked:vector ETV
attr interpolationmode sample-hold
vector 350 scenario.client1.tcp.conn-42 cwnd:vector ETV
attr interpolationmode sample-hold
vector 351 scenario.client1.tcp.conn-42 ssthresh:vector ETV
attr interpolationmode sample-hold
vector 352 scenario.client1.tcp.conn-42 dupAcks:vector ETV
attr interpolationmode sample-hold
vector 353 scenario.client3.tcp.conn-41 rtt:vector ETV
attr interpolationmode sample-hold
vector 354 scenario.client3.tcp.conn-41 srtt:vector ETV
attr interpolationmode sample-hold
vector 355 scenario.client3.tcp.conn-41 rttvar:vector ETV
attr interpolationmode sample-hold
vector 356 scenario.client3.tcp.conn-41 rto:vector ETV
attr interpolationmode sample-hold
vector 357 scenario.client3.tcp.conn-41 cwnd:vector ETV
attr interpolationmode sample-hold
vector 358 scenario.client3.tcp.conn-41 ssthresh:vector ETV
attr interpolationmode sample-hold
vector 359 scenario.client3.tcp.conn-41 dupAcks:vector ETV
attr interpolationmode sample-hold
vector 360 scenario.client0.tcp.conn-43 tcpRcvQueueBytes:vector ETV
attr interpolationmode sample-hold
vector 361 scenario.client0.tcp.conn-43 rcvAdv:vector ETV
attr interpolationmode sample-hold
vector 362 scenario.client0.tcp.conn-43 rcvWnd:vector ETV
attr interpolationmode sample-hold
vector 363 scenario.client0.tcp.conn-43 sndAck:vector ETV
attr interpolationmode sample-hold
vector 364 scenario.client3.tcp.conn-44 rcvAdv:vector ETV
attr interpolationmode sample-hold
vector 365 scenario.client3.tcp.conn-44 sndWnd:vector ETV
attr interpolationmode sample-hold
vector 366 scenario.client3.tcp.conn-44 tcpRcvQueueBytes:vector ETV
attr interpolationmode sample-hold
vector 367 scenario.client3.tcp.conn-44 rcvWnd:vector ETV
attr interpolationmode sample-hold
vector 368 scenario.client3.tcp.conn-44 sndAck:vector ETV
attr interpolationmode sample-hold
vector 369 scenario.client0.tcp.conn-43 rcvSeq:vector ETV
attr interpolationmode sample-hold
vector 370 scenario.client0.tcp.conn-43 rcvAck:vector ETV
attr interpolationmode sample-hold
vector 371 scenario.client0.tcp.conn-43 sndWnd:vector ETV
attr interpolationmode sample-hold
vector 372 scenario.client0.tcp.conn-43 unacked:vector ETV
attr interpolationmode sample-hold
vector 373 scenario.client3.tcp.conn-44 rcvSeq:vector ETV
attr interpolationmode sample-hold
vector 374 scenario.client3.tcp.conn-44 rcvAck:vector ETV
attr interpolationmode sample-hold
vector 375 scenario.client3.tcp.conn-44 unacked:vector ETV
attr interpolationmode sample-hold
vector 376 scenario.client3.tcp.conn-44 cwnd:vector ETV
attr interpolationmode sample-hold
vector 377 scenario.client3.tcp.conn-44 ssthresh:vector ETV
attr interpolationmode sample-hold
vector 378 scenario.client3.tcp.conn-44 dupAcks:vector ETV
attr interpolationmode sample-hold
vector 379 scenario.client0.tcp.conn-43 rtt:vector ETV
attr interpolationmode sample-hold
vector 380 scenario.client0.tcp.conn-43 srtt:vector ETV
attr interpolationmode sample-hold
vector 381 scenario.client0.tcp.conn-43 rttvar:vector ETV
attr interpolationmode sample-hold
vector 382 scenario.client0.tcp.conn-43 rto:vector ETV
attr interpolationmode sample-hold
vector 383 scenario.client0.tcp.conn-43 cwnd:vector ETV
attr interpolationmode sample-hold
vector 384 scenario.client0.tcp.conn-43 ssthresh:vector ETV
attr interpolationmode sample-hold
vector 385 scenario.client0.tcp.conn-43 dupAcks:vector ETV
attr interpolationmode sample-hold
vector 386 scenario.client2.tcp.conn-45 tcpRcvQueueBytes:vector ETV
attr interpolationmode sample-hold
vector 387 scenario.client2.tcp.conn-45 rcvAdv:vector ETV
attr interpolationmode sample-hold
vector 388 scenario.client2.tcp.conn-45 rcvWnd:vector ETV
attr interpolationmode sample-hold
vector 389 scenario.client2.tcp.conn-45 sndAck:vector ETV
attr interpolationmode sample-hold
vector 390 scenario.client4.tcp.conn-46 rcvAdv:vector ETV
attr interpolationmode sample-hold
vector 391 scenario.client4.tcp.conn-46 sndWnd:vector ETV
attr interpolationmode sample-hold
vector 392 scenario.client4.tcp.conn-46 tcpRcvQueueBytes:vector ETV
attr interpolationmode sample-hold
vector 393 scenario.client4.tcp.conn-46 rcvWnd:vector ETV
attr interpolationmode sample-hold
vector 394 scenario.client4.tcp.conn-46 sndAck:vector ETV
attr interpolationmode sample-hold
vector 395 scenario.client2.tcp.conn-45 rcvSeq:vector ETV
attr interpolationmode sample-hold
vector 396 scenario.client2.tcp.conn-45 rcvAck:vector ETV
attr interpolationmode sample-hold
vector 397 scenario.client2.tcp.conn-45 sndWnd:vector ETV
attr interpolationmode sample-hold
vector 398 scenario.client2.tcp.conn-45 unacked:vector ETV
attr interpolationmode sample-hold
vector 399 scenario.client4.tcp.conn-46 rcvSeq:vector ETV
attr interpolationmode sample-hold
vector 400 scenario.client4.tcp.conn-46 rcvAck:vector ETV
attr interpolationmode sample-hold
vector 401 scenario.client4.tcp.conn-46 unacked:vector ETV
attr interpolationmode sample-hold
vector 402 scenario.client4.tcp.conn-46 cwnd:vector ETV
attr interpolationmode sample-hold
vector 403 scenario.client4.tcp.conn-46 ssthresh:vector ETV
attr interpolationmode sample-hold
vector 404 scenario.client4.tcp.conn-46 dupAcks:vector ETV
attr interpolationmode sample-hold
vector 405 scenario.client2.tcp.conn-45 rtt:vector ETV
attr interpolationmode sample-hold
vector 406 scenario.client2.tcp.conn-45 srtt:vector ETV
attr interpolationmode sample-hold
vector 407 scenario.client2.tcp.conn-45 rttvar:vector ETV
attr interpolationmode sample-hold
vector 408 scenario.client2.tcp.conn-45 rto:vector ETV
attr interpolationmode sample-hold
vector 409 scenario.client2.tcp.conn-45 cwnd:vector ETV
attr interpolationmode sample-hold
vector 410 scenario.client2.tcp.conn-45 ssthresh:vector ETV
attr interpolationmode sample-hold
vector 411 scenario.client2.tcp.conn-45 dupAcks:vector ETV
attr interpolationmode sample-hold
vector 412 scenario.client1.tcp.conn-47 tcpRcvQueueBytes:vector ETV
attr interpolationmode sample-hold
vector 413 scenario.client1.tcp.conn-47 rcvAdv:vector ETV
attr interpolationmode sample-hold
vector 414 scenario.client1.tcp.conn-47 rcvWnd:vector ETV
attr interpolationmode sample-hold
vector 415 scenario.client1.tcp.conn-47 sndAck:vector ETV
attr interpolationmode sample-hold
vector 416 scenario.client3.tcp.conn-48 rcvAdv:vector ETV
attr interpolationmode sample-hold
vector 417 scenario.client3.tcp.conn-48 sndWnd:vector ETV
attr interpolationmode sample-hold
vector 418 scenario.client3.tcp.conn-48 tcpRcvQueueBytes:vector ETV
attr interpolationmode sample-hold
vector 419 scenario.client3.tcp.conn-48 rcvWnd:vector ETV
attr interpolationmode sample-hold
vector 420 scenario.client3.tcp.conn-48 sndAck:vector ETV
attr interpolationmode sample-hold
vector 421 scenario.client1.tcp.conn-47 rcvSeq:vector ETV
attr interpolationmode sample-hold
vector 422 scenario.client1.tcp.conn-47 rcvAck:vector ETV
attr interpolationmode sample-hold
vector 423 scenario.client1.tcp.conn-47 sndWnd:vector ETV
attr interpolationmode sample-hold
vector 424 scenario.client1.tcp.conn-47 unacked:vector ETV
attr interpolationmode sample-hold
vector 425 scenario.client3.tcp.conn-48 rcvSeq:vector ETV
attr interpolationmode sample-hold
vector 426 scenario.client3.tcp.conn-48 rcvAck:vector ETV
attr interpolationmode sample-hold
vector 427 scenario.client3.tcp.conn-48 unacked:vector ETV
attr interpolationmode sample-hold
vector 428 scenario.client3.tcp.conn-48 cwnd:vector ETV
attr interpolationmode sample-hold
vector 429 scenario.client3.tcp.conn-48 ssthresh:vector ETV
attr interpolationmode sample-hold
vector 430 scenario.client3.tcp.conn-48 dupAcks:vector ETV
attr interpolationmode sample-hold
vector 431 scenario.client1.tcp.conn-47 rtt:vector ETV
attr interpolationmode sample-hold
vector 432 scenario.client1.tcp.conn-47 srtt:vector ETV
attr interpolationmode sample-hold
vector 433 scenario.client1.tcp.conn-47 rttvar:vector ETV
attr interpolationmode sample-hold
vector 434 scenario.client1.tcp.conn-47 rto:vector ETV
attr interpolationmode sample-hold
vector 435 scenario.client1.tcp.conn-47 cwnd:vector ETV
attr interpolationmode sample-hold
vector 436 scenario.client1.tcp.conn-47 ssthresh:vector ETV
attr interpolationmode sample-hold
vector 437 scenario.client1.tcp.conn-47 dupAcks:vector ETV
attr interpolationmode sample-hold
vector 438 scenario.client1.tcp.conn-49 tcpRcvQueueBytes:vector ETV
attr interpolationmode sample-hold
vector 439 scenario.client1.tcp.conn-49 rcvAdv:vector ETV
attr interpolationmode sample-hold
vector 440 scenario.client1.tcp.conn-49 rcvWnd:vector ETV
attr interpolationmode sample-hold
vector 441 scenario.client1.tcp.conn-49 sndAck:vector ETV
attr interpolationmode sample-hold
vector 442 scenario.client1.ppp[0].ppp rcvdPkFromHl:vector(packetBytes) ETV
attr interpolationmode none
attr source packetReceivedFromUpper
attr title "packets received from higher layer, vector(packetBytes)"
vector 443 scenario.client1.ppp[0].ppp.queue packetPushed:vector(packetBytes) ETV
attr interpolationmode none
attr title "packet pushed, vector(packetBytes)"
vector 444 scenario.client1.ppp[0].ppp.queue queueLength:vector ETV
attr interpolationmode sample-hold
attr source "count(packetPushed) - count(packetPopped) - count(packetRemoved) - count(packetDropped)"
attr title "queue length, vector"
vector 445 scenario.client1.ppp[0].ppp.queue packetPopped:vector(packetBytes) ETV
attr interpolationmode none
attr title "packet popped, vector(packetBytes)"
vector 446 scenario.client1.ppp[0].ppp.queue queueingTime:vector ETV
attr interpolationmode none
attr source queueingTime(packetPopped)
attr title "queueing times, vector"
attr unit s
vector 447 scenario.client1.ppp[0].ppp txPk:vector(packetBytes) ETV
attr interpolationmode none
attr source packetSentToLower
attr title "packets transmitted, vector(packetBytes)"
vector 448 scenario.client0.ppp[0].ppp rxPkOk:vector(packetBytes) ETV
attr interpolationmode none
attr source rxPkOk
attr title "packets received OK, vector(packetBytes)"
vector 449 scenario.client0.ppp[0].ppp passedUpPk:vector(packetBytes) ETV
attr interpolationmode none
attr source packetSentToUpper
attr title "packets passed to higher layer, vector(packetBytes)"
vector 450 scenario.client0.tcp.conn-50 rcvAdv:vector ETV
attr interpolationmode sample-hold
vector 451 scenario.client0.tcp.conn-50 sndWnd:vector ETV
attr interpolationmode sample-hold
vector 452 scenario.client0.tcp.conn-50 tcpRcvQueueBytes:vector ETV
attr interpolationmode sample-hold
vector 453 scenario.client0.tcp.conn-50 rcvWnd:vector ETV
attr interpolationmode sample-hold
vector 454 scenario.client0.tcp.conn-50 sndAck:vector ETV
attr interpolationmode sample-hold
vector 455 scenario.client0.ppp[0].ppp rcvdPkFromHl:vector(packetBytes) ETV
attr interpolationmode none
attr source packetReceivedFromUpper
attr title "packets received from higher layer, vector(packetBytes)"
vector 456 scenario.client0.ppp[0].ppp.queue packetPushed:vector(packetBytes) ETV
attr interpolationmode none
attr title "packet pushed, vector(packetBytes)"
vector 457 scenario.client0.ppp[0].ppp.queue queueLength:vector ETV
attr interpolationmode sample-hold
attr source "count(packetPushed) - count(packetPopped) - count(packetRemoved) - count(packetDropped)"
attr title "queue length, vector"
vector 458 scenario.client0.ppp[0].ppp.queue packetPopped:vector(packetBytes) ETV
attr interpolationmode none
attr title "packet popped, vector(packetBytes)"
vector 459 scenario.client0.ppp[0].ppp.queue queueingTime:vector ETV
attr interpolationmode none
attr source queueingTime(packetPopped)
attr title "queueing times, vector"
attr unit s
vector 460 scenario.client0.ppp[0].ppp txPk:vector(packetBytes) ETV
attr interpolationmode none
attr source packetSentToLower
attr title "packets transmitted, vector(packetBytes)"
vector 461 scenario.client1.ppp[0].ppp rxPkOk:vector(packetBytes) ETV
attr interpolationmode none
attr source rxPkOk
attr title "packets received OK, vector(packetBytes)"
vector 462 scenario.client1.ppp[0].ppp passedUpPk:vector(packetBytes) ETV
attr interpolationmode none
attr source packetSentToUpper
attr title "packets passed to higher layer, vector(packetBytes)"
vector 463 scenario.client1.tcp.conn-49 rcvSeq:vector ETV
attr interpolationmode sample-hold
vector 464 scenario.client1.tcp.conn-49 rcvAck:vector ETV
attr interpolationmode sample-hold
vector 465 scenario.client1.tcp.conn-49 sndWnd:vector ETV
attr interpolationmode sample-hold
vector 466 scenario.client1.tcp.conn-49 unacked:vector ETV
attr interpolationmode sample-hold
vector 467 scenario.client0.tcp.conn-50 rcvSeq:vector ETV
attr interpolationmode sample-hold
vector 468 scenario.client0.tcp.conn-50 rcvAck:vector ETV
attr interpolationmode sample-hold
vector 469 scenario.client0.tcp.conn-50 unacked:vector ETV
attr interpolationmode sample-hold
vector 470 scenario.client0.tcp.conn-50 cwnd:vector ETV
attr interpolationmode sample-hold
vector 471 scenario.client0.tcp.conn-50 ssthresh:vector ETV
attr interpolationmode sample-hold
vector 472 scenario.client0.tcp.conn-50 dupAcks:vector ETV
attr interpolationmode sample-hold
vector 473 scenario.client1.tcp.conn-49 rtt:vector ETV
attr interpolationmode sample-hold
vector 474 scenario.client1.tcp.conn-49 srtt:vector ETV
attr interpolationmode sample-hold
vector 475 scenario.client1.tcp.conn-49 rttvar:vector ETV
attr interpolationmode sample-hold
vector 476 scenario.client1.tcp.conn-49 rto:vector ETV
attr interpolationmode sample-hold
vector 477 scenario.client1.tcp.conn-49 cwnd:vector ETV
attr interpolationmode sample-hold
vector 478 scenario.client1.tcp.conn-49 ssthresh:vector ETV
attr interpolationmode sample-hold
vector 479 scenario.client1.tcp.conn-49 dupAcks:vector ETV
attr interpolationmode sample-hold
vector 480 scenario.client2.tcp.conn-51 tcpRcvQueueBytes:vector ETV
attr interpolationmode sample-hold
vector 481 scenario.client2.tcp.conn-51 rcvAdv:vector ETV
attr interpolationmode sample-hold
vector 482 scenario.client2.tcp.conn-51 rcvWnd:vector ETV
attr interpolationmode sample-hold
vector 483 scenario.client2.tcp.conn-51 sndAck:vector ETV
attr interpolationmode sample-hold
vector 484 scenario.client2.ppp[1].ppp rcvdPkFromHl:vector(packetBytes) ETV
attr interpolationmode none
attr source packetReceivedFromUpper
attr title "packets received from higher layer, vector(packetBytes)"
vector 485 scenario.client2.ppp[1].ppp.queue packetPushed:vector(packetBytes) ETV
attr interpolationmode none
attr title "packet pushed, vector(packetBytes)"
vector 486 scenario.client2.ppp[1].ppp.queue queueLength:vector ETV
attr interpolationmode sample-hold
attr source "count(packetPushed) - count(packetPopped) - count(packetRemoved) - count(packetDropped)"
attr title "queue length, vector"
vector 487 scenario.client2.ppp[1].ppp.queue packetPopped:vector(packetBytes) ETV
attr interpolationmode none
attr title "packet popped, vector(packetBytes)"
vector 488 scenario.client2.ppp[1].ppp.queue queueingTime:vector ETV
attr interpolationmode none
attr source queueingTime(packetPopped)
attr title "queueing times, vector"
attr unit s
vector 489 scenario.client2.ppp[1].ppp txPk:vector(packetBytes) ETV
attr interpolationmode none
attr source packetSentToLower
attr title "packets transmitted, vector(packetBytes)"
vector 490 scenario.client1.ppp[1].ppp rxPkOk:vector(packetBytes) ETV
attr interpolationmode none
attr source rxPkOk
attr title "packets received OK, vector(packetBytes)"
vector 491 scenario.client1.ppp[1].ppp passedUpPk:vector(packetBytes) ETV
attr interpolationmode none
attr source packetSentToUpper
attr title "packets passed to higher layer, vector(packetBytes)"
vector 492 scenario.client1.tcp.conn-52 rcvAdv:vector ETV
attr interpolationmode sample-hold
vector 493 scenario.client1.tcp.conn-52 sndWnd:vector ETV
attr interpolationmode sample-hold
vector 494 scenario.client1.tcp.conn-52 tcpRcvQueueBytes:vector ETV
attr interpolationmode sample-hold
vector 495 scenario.client1.tcp.conn-52 rcvWnd:vector ETV
attr interpolationmode sample-hold
vector 496 scenario.client1.tcp.conn-52 sndAck:vector ETV
attr interpolationmode sample-hold
vector 497 scenario.client1.ppp[1].ppp rcvdPkFromHl:vector(packetBytes) ETV
attr interpolationmode none
attr source packetReceivedFromUpper
attr title "packets received from higher layer, vector(packetBytes)"
vector 498 scenario.client1.ppp[1].ppp.queue packetPushed:vector(packetBytes) ETV
attr interpolationmode none
attr title "packet pushed, vector(packetBytes)"
vector 499 scenario.client1.ppp[1].ppp.queue queueLength:vector ETV
attr interpolationmode sample-hold
attr source "count(packetPushed) - count(packetPopped) - count(packetRemoved) - count(packetDropped)"
attr title "queue length, vector"
vector 500 scenario.client1.ppp[1].ppp.queue packetPopped:vector(packetBytes) ETV
attr interpolationmode none
attr title "packet popped, vector(packetBytes)"
vector 501 scenario.client1.ppp[1].ppp.queue queueingTime:vector ETV
attr interpolationmode none
attr source queueingTime(packetPopped)
attr title "queueing times, vector"
attr unit s
vector 502 scenario.client1.ppp[1].ppp txPk:vector(packetBytes) ETV
attr interpolationmode none
attr source packetSentToLower
attr title "packets transmitted, vector(packetBytes)"
vector 503 scenario.client2.ppp[1].ppp rxPkOk:vector(packetBytes) ETV
attr interpolationmode none
attr source rxPkOk
attr title "packets received OK, vector(packetBytes)"
vector 504 scenario.client2.ppp[1].ppp passedUpPk:vector(packetBytes) ETV
attr interpolationmode none
attr source packetSentToUpper
attr title "packets passed to higher layer, vector(packetBytes)"
vector 505 scenario.client2.tcp.conn-51 rcvSeq:vector ETV
attr interpolationmode sample-hold
vector 506 scenario.client2.tcp.conn-51 rcvAck:vector ETV
attr interpolationmode sample-hold
vector 507 scenario.client2.tcp.conn-51 sndWnd:vector ETV
attr interpolationmode sample-hold
vector 508 scenario.client2.tcp.conn-51 unacked:vector ETV
attr interpolationmode sample-hold
vector 509 scenario.client1.tcp.conn-52 rcvSeq:vector ETV
attr interpolationmode sample-hold
vector 510 scenario.client1.tcp.conn-52 rcvAck:vector ETV
attr interpolationmode sample-hold
vector 511 scenario.client1.tcp.conn-52 unacked:vector ETV
attr interpolationmode sample-hold
vector 512 scenario.client1.tcp.conn-52 cwnd:vector ETV
attr interpolationmode sample-hold
vector 513 scenario.client1.tcp.conn-52 ssthresh:vector ETV
attr interpolationmode sample-hold
vector 514 scenario.client1.tcp.conn-52 dupAcks:vector ETV
attr interpolationmode sample-hold
vector 515 scenario.client2.tcp.conn-51 rtt:vector ETV
attr interpolationmode sample-hold
vector 516 scenario.client2.tcp.conn-51 srtt:vector ETV
attr interpolationmode sample-hold
vector 517 scenario.client2.tcp.conn-51 rttvar:vector ETV
attr interpolationmode sample-hold
vector 518 scenario.client2.tcp.conn-51 rto:vector ETV
attr interpolationmode sample-hold
vector 519 scenario.client2.tcp.conn-51 cwnd:vector ETV
attr interpolationmode sample-hold
vector 520 scenario.client2.tcp.conn-51 ssthresh:vector ETV
attr interpolationmode sample-hold
vector 521 scenario.client2.tcp.conn-51 dupAcks:vector ETV
attr interpolationmode sample-hold
vector 522 scenario.client0.tcp.conn-53 tcpRcvQueueBytes:vector ETV
attr interpolationmode sample-hold
vector 523 scenario.client0.tcp.conn-53 rcvAdv:vector ETV
attr interpolationmode sample-hold
vector 524 scenario.client0.tcp.conn-53 rcvWnd:vector ETV
attr interpolationmode sample-hold
vector 525 scenario.client0.tcp.conn-53 sndAck:vector ETV
attr interpolationmode sample-hold
vector 526 scenario.client0.ppp[1].ppp rcvdPkFromHl:vector(packetBytes) ETV
attr interpolationmode none
attr source packetReceivedFromUpper
attr title "packets received from higher layer, vector(packetBytes)"
vector 527 scenario.client0.ppp[1].ppp.queue packetPushed:vector(packetBytes) ETV
attr interpolationmode none
attr title "packet pushed, vector(packetBytes)"
vector 528 scenario.client0.ppp[1].ppp.queue queueLength:vector ETV
attr interpolationmode sample-hold
attr source "count(packetPushed) - count(packetPopped) - count(packetRemoved) - count(packetDropped)"
attr title "queue length, vector"
vector 529 scenario.client0.ppp[1].ppp.queue packetPopped:vector(packetBytes) ETV
attr interpolationmode none
attr title "packet popped, vector(packetBytes)"
vector 530 scenario.client0.ppp[1].ppp.queue queueingTime:vector ETV
attr interpolationmode none
attr source queueingTime(packetPopped)
attr title "queueing times, vector"
attr unit s
vector 531 scenario.client0.ppp[1].ppp txPk:vector(packetBytes) ETV
attr interpolationmode none
attr source packetSentToLower
attr title "packets transmitted, vector(packetBytes)"
vector 532 scenario.client2.ppp[0].ppp rxPkOk:vector(packetBytes) ETV
attr interpolationmode none
attr source rxPkOk
attr title "packets received OK, vector(packetBytes)"
vector 533 scenario.client2.ppp[0].ppp passedUpPk:vector(packetBytes) ETV
attr interpolationmode none
attr source packetSentToUpper
attr title "packets passed to higher layer, vector(packetBytes)"
vector 534 scenario.client2.tcp.conn-54 rcvAdv:vector ETV
attr interpolationmode sample-hold
vector 535 scenario.client2.tcp.conn-54 sndWnd:vector ETV
attr interpolationmode sample-hold
vector 536 scenario.client2.tcp.conn-54 tcpRcvQueueBytes:vector ETV
attr interpolationmode sample-hold
vector 537 scenario.client2.tcp.conn-54 rcvWnd:vector ETV
attr interpolationmode sample-hold
vector 538 scenario.client2.tcp.conn-54 sndAck:vector ETV
attr interpolationmode sample-hold
vector 539 scenario.client2.ppp[0].ppp rcvdPkFromHl:vector(packetBytes) ETV
attr interpolationmode none
attr source packetReceivedFromUpper
attr title "packets received from higher layer, vector(packetBytes)"
vector 540 scenario.client2.ppp[0].ppp.queue packetPushed:vector(packetBytes) ETV
attr interpolationmode none
attr title "packet pushed, vector(packetBytes)"
vector 541 scenario.client2.ppp[0].ppp.queue queueLength:vector ETV
attr interpolationmode sample-hold
attr source "count(packetPushed) - count(packetPopped) - count(packetRemoved) - count(packetDropped)"
attr title "queue length, vector"
vector 542 scenario.client2.ppp[0].ppp.queue packetPopped:vector(packetBytes) ETV
attr interpolationmode none
attr title "packet popped, vector(packetBytes)"
vector 543 scenario.client2.ppp[0].ppp.queue queueingTime:vector ETV
attr interpolationmode none
attr source queueingTime(packetPopped)
attr title "queueing times, vector"
attr unit s
vector 544 scenario.client2.ppp[0].ppp txPk:vector(packetBytes) ETV
attr interpolationmode none
attr source packetSentToLower
attr title "packets transmitted, vector(packetBytes)"
vector 545 scenario.client0.ppp[1].ppp rxPkOk:vector(packetBytes) ETV
attr interpolationmode none
attr source rxPkOk
attr title "packets received OK, vector(packetBytes)"
vector 546 scenario.client0.ppp[1].ppp passedUpPk:vector(packetBytes) ETV
attr interpolationmode none
attr source packetSentToUpper
attr title "packets passed to higher layer, vector(packetBytes)"
vector 547 scenario.client0.tcp.conn-53 rcvSeq:vector ETV
attr interpolationmode sample-hold
vector 548 scenario.client0.tcp.conn-53 rcvAck:vector ETV
attr interpolationmode sample-hold
vector 549 scenario.client0.tcp.conn-53 sndWnd:vector ETV
attr interpolationmode sample-hold
vector 550 scenario.client0.tcp.conn-53 unacked:vector ETV
attr interpolationmode sample-hold
vector 551 scenario.client2.tcp.conn-54 rcvSeq:vector ETV
attr interpolationmode sample-hold
vector 552 scenario.client2.tcp.conn-54 rcvAck:vector ETV
attr interpolationmode sample-hold
vector 553 scenario.client2.tcp.conn-54 unacked:vector ETV
attr interpolationmode sample-hold
vector 554 scenario.client2.tcp.conn-54 cwnd:vector ETV
attr interpolationmode sample-hold
vector 555 scenario.client2.tcp.conn-54 ssthresh:vector ETV
attr interpolationmode sample-hold
vector 556 scenario.client2.tcp.conn-54 dupAcks:vector ETV
attr interpolationmode sample-hold
vector 557 scenario.client0.tcp.conn-53 rtt:vector ETV
attr interpolationmode sample-hold
vector 558 scenario.client0.tcp.conn-53 srtt:vector ETV
attr interpolationmode sample-hold
vector 559 scenario.client0.tcp.conn-53 rttvar:vector ETV
attr interpolationmode sample-hold
vector 560 scenario.client0.tcp.conn-53 rto:vector ETV
attr interpolationmode sample-hold
vector 561 scenario.client0.tcp.conn-53 cwnd:vector ETV
attr interpolationmode sample-hold
vector 562 scenario.client0.tcp.conn-53 ssthresh:vector ETV
attr interpolationmode sample-hold
vector 563 scenario.client0.tcp.conn-53 dupAcks:vector ETV
attr interpolationmode sample-hold
vector 564 scenario.client0.tcp.conn-55 tcpRcvQueueBytes:vector ETV
attr interpolationmode sample-hold
vector 565 scenario.client0.tcp.conn-55 rcvAdv:vector ETV
attr interpolationmode sample-hold
vector 566 scenario.client0.tcp.conn-55 rcvWnd:vector ETV
attr interpolationmode sample-hold
vector 567 scenario.client0.tcp.conn-55 sndAck:vector ETV
attr interpolationmode sample-hold
vector 568 scenario.client1.tcp.conn-56 rcvAdv:vector ETV
attr interpolationmode sample-hold
vector 569 scenario.client1.tcp.conn-56 sndWnd:vector ETV
attr interpolationmode sample-hold
vector 570 scenario.client1.tcp.conn-56 tcpRcvQueueBytes:vector ETV
attr interpolationmode sample-hold
vector 571 scenario.client1.tcp.conn-56 rcvWnd:vector ETV
attr interpolationmode sample-hold
vector 572 scenario.client1.tcp.conn-56 sndAck:vector ETV
attr interpolationmode sample-hold
vector 573 scenario.client0.tcp.conn-55 rcvSeq:vector ETV
attr interpolationmode sample-hold
vector 574 scenario.client0.tcp.conn-55 rcvAck:vector ETV
attr interpolationmode sample-hold
vector 575 scenario.client0.tcp.conn-55 sndWnd:vector ETV
attr interpolationmode sample-hold
vector 576 scenario.client0.tcp.conn-55 unacked:vector ETV
attr interpolationmode sample-hold
vector 577 scenario.client1.tcp.conn-56 rcvSeq:vector ETV
attr interpolationmode sample-hold
vector 578 scenario.client1.tcp.conn-56 rcvAck:vector ETV
attr interpolationmode sample-hold
vector 579 scenario.client1.tcp.conn-56 unacked:vector ETV
attr interpolationmode sample-hold
vector 580 scenario.client1.tcp.conn-56 cwnd:vector ETV
attr interpolationmode sample-hold
vector 581 scenario.client1.tcp.conn-56 ssthresh:vector ETV
attr interpolationmode sample-hold
vector 582 scenario.client1.tcp.conn-56 dupAcks:vector ETV
attr interpolationmode sample-hold
vector 583 scenario.client0.tcp.conn-55 rtt:vector ETV
attr interpolationmode sample-hold
vector 584 scenario.client0.tcp.conn-55 srtt:vector ETV
attr interpolationmode sample-hold
vector 585 scenario.client0.tcp.conn-55 rttvar:vector ETV
attr interpolationmode sample-hold
vector 586 scenario.client0.tcp.conn-55 rto:vector ETV
attr interpolationmode sample-hold
vector 587 scenario.client0.tcp.conn-55 cwnd:vector ETV
attr interpolationmode sample-hold
vector 588 scenario.client0.tcp.conn-55 ssthresh:vector ETV
attr interpolationmode sample-hold
vector 589 scenario.client0.tcp.conn-55 dupAcks:vector ETV
attr interpolationmode sample-hold
vector 590 scenario.client1.tcp.conn-57 tcpRcvQueueBytes:vector ETV
attr interpolationmode sample-hold
vector 591 scenario.client1.tcp.conn-57 rcvAdv:vector ETV
attr interpolationmode sample-hold
vector 592 scenario.client1.tcp.conn-57 rcvWnd:vector ETV
attr interpolationmode sample-hold
vector 593 scenario.client1.tcp.conn-57 sndAck:vector ETV
attr interpolationmode sample-hold
vector 594 scenario.client2.tcp.conn-58 rcvAdv:vector ETV
attr interpolationmode sample-hold
vector 595 scenario.client2.tcp.conn-58 sndWnd:vector ETV
attr interpolationmode sample-hold
vector 596 scenario.client2.tcp.conn-58 tcpRcvQueueBytes:vector ETV
attr interpolationmode sample-hold
vector 597 scenario.client2.tcp.conn-58 rcvWnd:vector ETV
attr interpolationmode sample-hold
vector 598 scenario.client2.tcp.conn-58 sndAck:vector ETV
attr interpolationmode sample-hold
vector 599 scenario.client1.tcp.conn-57 rcvSeq:vector ETV
attr interpolationmode sample-hold
vector 600 scenario.client1.tcp.conn-57 rcvAck:vector ETV
attr interpolationmode sample-hold
vector 601 scenario.client1.tcp.conn-57 sndWnd:vector ETV
attr interpolationmode sample-hold
vector 602 scenario.client1.tcp.conn-57 unacked:vector ETV
attr interpolationmode sample-hold
vector 603 scenario.client2.tcp.conn-58 rcvSeq:vector ETV
attr interpolationmode sample-hold
vector 604 scenario.client2.tcp.conn-58 rcvAck:vector ETV
attr interpolationmode sample-hold
vector 605 scenario.client2.tcp.conn-58 unacked:vector ETV
attr interpolationmode sample-hold
vector 606 scenario.client2.tcp.conn-58 cwnd:vector ETV
attr interpolationmode sample-hold
vector 607 scenario.client2.tcp.conn-58 ssthresh:vector ETV
attr interpolationmode sample-hold
vector 608 scenario.client2.tcp.conn-58 dupAcks:vector ETV
attr interpolationmode sample-hold
vector 609 scenario.client1.tcp.conn-57 rtt:vector ETV
attr interpolationmode sample-hold
vector 610 scenario.client1.tcp.conn-57 srtt:vector ETV
attr interpolationmode sample-hold
vector 611 scenario.client1.tcp.conn-57 rttvar:vector ETV
attr interpolationmode sample-hold
vector 612 scenario.client1.tcp.conn-57 rto:vector ETV
attr interpolationmode sample-hold
vector 613 scenario.client1.tcp.conn-57 cwnd:vector ETV
attr interpolationmode sample-hold
vector 614 scenario.client1.tcp.conn-57 ssthresh:vector ETV
attr interpolationmode sample-hold
vector 615 scenario.client1.tcp.conn-57 dupAcks:vector ETV
attr interpolationmode sample-hold
vector 616 scenario.client2.tcp.conn-59 tcpRcvQueueBytes:vector ETV
attr interpolationmode sample-hold
vector 617 scenario.client2.tcp.conn-59 rcvAdv:vector ETV
attr interpolationmode sample-hold
vector 618 scenario.client2.tcp.conn-59 rcvWnd:vector ETV
attr interpolationmode sample-hold
vector 619 scenario.client2.tcp.conn-59 sndAck:vector ETV
attr interpolationmode sample-hold
vector 620 scenario.client0.tcp.conn-60 rcvAdv:vector ETV
attr interpolationmode sample-hold
vector 621 scenario.client0.tcp.conn-60 sndWnd:vector ETV
attr interpolationmode sample-hold
vector 622 scenario.client0.tcp.conn-60 tcpRcvQueueBytes:vector ETV
attr interpolationmode sample-hold
vector 623 scenario.client0.tcp.conn-60 rcvWnd:vector ETV
attr interpolationmode sample-hold
vector 624 scenario.client0.tcp.conn-60 sndAck:vector ETV
attr interpolationmode sample-hold
vector 625 scenario.client2.tcp.conn-59 rcvSeq:vector ETV
attr interpolationmode sample-hold
vector 626 scenario.client2.tcp.conn-59 rcvAck:vector ETV
attr interpolationmode sample-hold
vector 627 scenario.client2.tcp.conn-59 sndWnd:vector ETV
attr interpolationmode sample-hold
vector 628 scenario.client2.tcp.conn-59 unacked:vector ETV
attr interpolationmode sample-hold
vector 629 scenario.client0.tcp.conn-60 rcvSeq:vector ETV
attr interpolationmode sample-hold
vector 630 scenario.client0.tcp.conn-60 rcvAck:vector ETV
attr interpolationmode sample-hold
vector 631 scenario.client0.tcp.conn-60 unacked:vector ETV
attr interpolationmode sample-hold
vector 632 scenario.client0.tcp.conn-60 cwnd:vector ETV
attr interpolationmode sample-hold
vector 633 scenario.client0.tcp.conn-60 ssthresh:vector ETV
attr interpolationmode sample-hold
vector 634 scenario.client0.tcp.conn-60 dupAcks:vector ETV
attr interpolationmode sample-hold
vector 635 scenario.client2.tcp.conn-59 rtt:vector ETV
attr interpolationmode sample-hold
vector 636 scenario.client2.tcp.conn-59 srtt:vector ETV
attr interpolationmode sample-hold
vector 637 scenario.client2.tcp.conn-59 rttvar:vector ETV
attr interpolationmode sample-hold
vector 638 scenario.client2.tcp.conn-59 rto:vector ETV
attr interpolationmode sample-hold
vector 639 scenario.client2.tcp.conn-59 cwnd:vector ETV
attr interpolationmode sample-hold
vector 640 scenario.client2.tcp.conn-59 ssthresh:vector ETV
attr interpolationmode sample-hold
vector 641 scenario.client2.tcp.conn-59 dupAcks:vector ETV
attr interpolationmode sample-hold
0	0	0	0
0	414	6.003044295663	1
0	415	6.003452295663	0
0	429	6.004836295663	1
0	432	6.005212295663	0
0	504	6.459425641652	1
0	505	6.459833641652	0
0	517	6.461241641652	1
0	518	6.461625641652	0
0	696	7.424373208655	1
0	697	7.424749208655	0
0	719	7.54898131962	1
0	720	7.54936531962	0
0	756	7.831824791894	1
0	757	7.832200791894	0
0	779	7.866555892453	1
0	780	7.866939892453	0
1	0	0	0
1	472	6.198187200537	1
1	473	6.198595200537	0
1	485	6.200003200537	1
1	486	6.200387200537	0
1	574	6.666516691671	1
1	575	6.666924691671	0
1	589	6.668308691671	1
1	592	6.668684691671	0
1	606	6.924022245796	1
1	607	6.924398245796	0
1	614	6.944806387524	1
1	615	6.945190387524	0
1	666	7.173540542497	1
1	667	7.173916542497	0
1	704	7.434413798273	1
1	705	7.434797798273	0
2	0	0	0
2	247	3.825975903684	1
2	248	3.826383903684	0
2	262	3.827767903684	1
2	265	3.828143903684	0
2	305	4.063218204291	1
2	306	4.063626204291	0
2	318	4.065034204291	1
2	319	4.065418204291	0
2	854	8.249532667867	1
2	855	8.249916667867	0
3	0	0	0
3	55	3.125240407605	1
3	56	3.125648407605	0
3	70	3.127032407605	1
3	73	3.127408407605	0
3	81	3.373957667775	1
3	82	3.374365667775	0
3	99	3.375773667775	1
3	101	3.376157667775	0
3	809	8.087570938078	1
3	810	8.087954938078	0
4	0	0	0
4	408	6.002136295663	1
4	409	6.002544295663	0
4	421	6.003952295663	1
4	422	6.004336295663	0
4	510	6.460333641652	1
4	511	6.460741641652	0
4	525	6.462125641652	1
4	528	6.462501641652	0
4	689	7.423489208655	1
4	690	7.423873208655	0
4	726	7.54986531962	1
4	727	7.55024131962	0
4	749	7.830940791894	1
4	750	7.831324791894	0
4	786	7.867439892453	1
4	787	7.867815892453	0
5	0	0	0
5	446	6.077967236427	1
5	447	6.078375236427	0
5	461	6.079759236427	1
5	464	6.080135236427	0
5	536	6.524979400006	1
5	537	6.525387400006	0
5	549	6.526795400006	1
5	550	6.527179400006	0
5	629	7.058518353832	1
5	630	7.058902353832	0
5	651	7.097732564959	1
5	652	7.098108564959	0
5	681	7.210804679342	1
5	682	7.211180679342	0
5	824	8.135484997955	1
5	825	8.135868997955	0
6	0	0	0
6	279	3.909077804987	1
6	280	3.909485804987	0
6	294	3.910869804987	1
6	297	3.911245804987	0
6	369	4.785316657003	1
6	370	4.785724657003	0
6	382	4.787132657003	1
6	383	4.787516657003	0
6	734	7.584503827875	1
6	735	7.584887827875	0
7	0	0	0
7	23	3.0253838446	1
7	24	3.0257918446	0
7	38	3.0271758446	1
7	41	3.0275518446	0
7	177	3.5350648793	1
7	178	3.5354728793	0
7	190	3.5368808793	1
7	191	3.5372648793	0
7	836	8.137132997467	1
7	840	8.137516997467	0
8	0	0	0
8	478	6.199095200537	1
8	479	6.199503200537	0
8	493	6.200887200537	1
8	496	6.201263200537	0
8	568	6.665608691671	1
8	569	6.666016691671	0
8	581	6.667424691671	1
8	582	6.667808691671	0
8	599	6.923138245796	1
8	600	6.923522245796	0
8	621	6.945690387524	1
8	622	6.946066387524	0
8	659	7.172656542497	1
8	660	7.173040542497	0
8	711	7.435297798273	1
8	712	7.435673798273	0
9	0	0	0
9	440	6.077059236427	1
9	441	6.077467236427	0
9	453	6.078875236427	1
9	454	6.079259236427	0
9	542	6.525887400006	1
9	543	6.526295400006	0
9	557	6.527679400006	1
9	560	6.528055400006	0
9	636	7.059402353832	1
9	637	7.059778353832	0
9	644	7.096848564959	1
9	645	7.097232564959	0
9	674	7.209920679342	1
9	675	7.210304679342	0
9	831	8.136368997955	1
9	832	8.136744997955	0
10	0	0	0
10	106	3.376316185064	1
10	116	3.376724185064	0
[...]
484	440	6.077059236427	44
484	453	6.078875236427	41
484	542	6.525887400006	44
484	557	6.527679400006	40
484	636	7.059402353832	40
484	644	7.096848564959	41
484	674	7.209920679342	41
484	831	8.136368997955	40
485	440	6.077059236427	44
485	453	6.078875236427	41
485	542	6.525887400006	44
485	557	6.527679400006	40
485	636	7.059402353832	40
485	644	7.096848564959	41
485	674	7.209920679342	41
485	831	8.136368997955	40
486	440	6.077059236427	1
486	440	6.077059236427	0
486	453	6.078875236427	1
486	453	6.078875236427	0
486	542	6.525887400006	1
486	542	6.525887400006	0
486	557	6.527679400006	1
486	557	6.527679400006	0
486	636	7.059402353832	1
486	636	7.059402353832	0
486	644	7.096848564959	1
486	644	7.096848564959	0
486	674	7.209920679342	1
486	674	7.209920679342	0
486	831	8.136368997955	1
486	831	8.136368997955	0
487	440	6.077059236427	44
487	453	6.078875236427	41
487	542	6.525887400006	44
487	557	6.527679400006	40
487	636	7.059402353832	40
487	644	7.096848564959	41
487	674	7.209920679342	41
487	831	8.136368997955	40
488	440	6.077059236427	0
488	453	6.078875236427	0
488	542	6.525887400006	0
488	557	6.527679400006	0
488	636	7.059402353832	0
488	644	7.096848564959	0
488	674	7.209920679342	0
488	831	8.136368997955	0
489	440	6.077059236427	51
489	453	6.078875236427	48
489	542	6.525887400006	51
489	557	6.527679400006	47
489	636	7.059402353832	47
489	644	7.096848564959	48
489	674	7.209920679342	48
489	831	8.136368997955	47
490	442	6.077967236427	51
490	455	6.079759236427	48
490	544	6.526795400006	51
490	561	6.528555400006	47
490	638	7.060278353832	47
490	646	7.097732564959	48
490	676	7.210804679342	48
490	837	8.137244997955	47
491	442	6.077967236427	44
491	455	6.079759236427	41
491	544	6.526795400006	44
491	561	6.528555400006	40
491	638	7.060278353832	40
491	646	7.097732564959	41
491	676	7.210804679342	41
491	837	8.137244997955	40
492	444	6.077967236427	1526769
492	444	6.077967236427	1526769
492	457	6.079759236427	1526769
492	648	7.097732564959	1526771
492	678	7.210804679342	1526772
493	444	6.077967236427	7504
493	457	6.079759236427	7504
494	444	6.077967236427	0
494	457	6.079759236427	0
494	457	6.079759236427	1
494	648	7.097732564959	0
494	648	7.097732564959	0
494	678	7.210804679342	0
494	678	7.210804679342	0
495	444	6.077967236427	7504
495	457	6.079759236427	7503
495	648	7.097732564959	7504
495	678	7.210804679342	7504
496	444	6.077967236427	1519265
496	457	6.079759236427	1519266
496	648	7.097732564959	1519267
496	678	7.210804679342	1519268
497	446	6.077967236427	44
497	461	6.079759236427	40
497	536	6.524979400006	44
497	549	6.526795400006	41
497	629	7.058518353832	41
497	651	7.097732564959	40
497	681	7.210804679342	40
497	824	8.135484997955	41
498	446	6.077967236427	44
498	461	6.079759236427	40
498	536	6.524979400006	44
498	549	6.526795400006	41
498	629	7.058518353832	41
498	651	7.097732564959	40
498	681	7.210804679342	40
498	824	8.135484997955	41
499	446	6.077967236427	1
499	446	6.077967236427	0
499	461	6.079759236427	1
499	461	6.079759236427	0
499	536	6.524979400006	1
499	536	6.524979400006	0
499	549	6.526795400006	1
499	549	6.526795400006	0
499	629	7.058518353832	1
499	629	7.058518353832	0
499	651	7.097732564959	1
499	651	7.097732564959	0
499	681	7.210804679342	1
499	681	7.210804679342	0
499	824	8.135484997955	1
499	824	8.135484997955	0
500	446	6.077967236427	44
500	461	6.079759236427	40
500	536	6.524979400006	44
500	549	6.526795400006	41
500	629	7.058518353832	41
500	651	7.097732564959	40
500	681	7.210804679342	40
500	824	8.135484997955	41
501	446	6.077967236427	0
501	461	6.079759236427	0
501	536	6.524979400006	0
501	549	6.526795400006	0
501	629	7.058518353832	0
501	651	7.097732564959	0
501	681	7.210804679342	0
501	824	8.135484997955	0
502	446	6.077967236427	51
502	461	6.079759236427	47
502	536	6.524979400006	51
502	549	6.526795400006	48
502	629	7.058518353832	48
502	651	7.097732564959	47
502	681	7.210804679342	47
502	824	8.135484997955	48
503	448	6.078875236427	51
503	465	6.080635236427	47
503	538	6.525887400006	51
503	551	6.527679400006	48
503	631	7.059402353832	48
503	653	7.098608564959	47
503	683	7.211680679342	47
503	826	8.136368997955	48
504	448	6.078875236427	44
504	465	6.080635236427	40
504	538	6.525887400006	44
504	551	6.527679400006	41
504	631	7.059402353832	41
504	653	7.098608564959	40
504	683	7.211680679342	40
504	826	8.136368997955	41
505	450	6.078875236427	1519491
505	467	6.080635236427	1519492
505	655	7.098608564959	1519492
505	685	7.211680679342	1519492
506	450	6.078875236427	1519265
506	467	6.080635236427	1519266
506	655	7.098608564959	1519267
506	685	7.211680679342	1519268
507	450	6.078875236427	7504
507	467	6.080635236427	7503
507	655	7.098608564959	7504
507	685	7.211680679342	7504
508	450	6.078875236427	1
508	467	6.080635236427	0
508	642	7.096848564959	1
508	655	7.098608564959	0
508	672	7.209920679342	1
508	685	7.211680679342	0
509	457	6.079759236427	1519265
509	648	7.097732564959	1519266
509	678	7.210804679342	1519267
510	457	6.079759236427	1519492
510	648	7.097732564959	1519492
510	678	7.210804679342	1519492
511	457	6.079759236427	0
512	457	6.079759236427	1072
513	457	6.079759236427	4294967295
514	457	6.079759236427	0
514	648	7.097732564959	0
514	678	7.210804679342	0
515	467	6.080635236427	0.00176
515	655	7.098608564959	0.00176
515	685	7.211680679342	0.00176
516	467	6.080635236427	0.00022
516	655	7.098608564959	0.0004125
516	685	7.211680679342	0.0005809375
517	467	6.080635236427	0.65647
517	655	7.098608564959	0.57460375
517	685	7.211680679342	0.50294671875
518	467	6.080635236427	2.6261
518	655	7.098608564959	2.2988275
518	685	7.211680679342	2.0123678125
519	467	6.080635236427	1072
519	655	7.098608564959	1608
519	685	7.211680679342	2144
520	467	6.080635236427	4294967295
520	655	7.098608564959	4294967295
520	685	7.211680679342	4294967295
521	467	6.080635236427	0
521	655	7.098608564959	0
521	685	7.211680679342	0
522	469	6.198187200537	0
522	482	6.200003200537	0
522	612	6.944806387524	0
522	702	7.434413798273	0
523	469	6.198187200537	7504
523	482	6.200003200537	1557278
523	482	6.200003200537	1557278
523	612	6.944806387524	1557278
523	702	7.434413798273	1557278
524	469	6.198187200537	7504
524	482	6.200003200537	7504
524	612	6.944806387524	7504
524	702	7.434413798273	7504
525	469	6.198187200537	0
525	482	6.200003200537	1549774
525	612	6.944806387524	1549774
525	702	7.434413798273	1549774
526	472	6.198187200537	44
526	485	6.200003200537	41
526	574	6.666516691671	44
526	589	6.668308691671	40
526	606	6.924022245796	40
526	614	6.944806387524	41
526	666	7.173540542497	40
526	704	7.434413798273	41
527	472	6.198187200537	44
527	485	6.200003200537	41
527	574	6.666516691671	44
527	589	6.668308691671	40
527	606	6.924022245796	40
527	614	6.944806387524	41
527	666	7.173540542497	40
527	704	7.434413798273	41
528	472	6.198187200537	1
528	472	6.198187200537	0
528	485	6.200003200537	1
528	485	6.200003200537	0
528	574	6.666516691671	1
528	574	6.666516691671	0
528	589	6.668308691671	1
528	589	6.668308691671	0
528	606	6.924022245796	1
528	606	6.924022245796	0
528	614	6.944806387524	1
528	614	6.944806387524	0
528	666	7.173540542497	1
528	666	7.173540542497	0
528	704	7.434413798273	1
528	704	7.434413798273	0
529	472	6.198187200537	44
529	485	6.200003200537	41
529	574	6.666516691671	44
529	589	6.668308691671	40
529	606	6.924022245796	40
529	614	6.944806387524	41
529	666	7.173540542497	40
529	704	7.434413798273	41
530	472	6.198187200537	0
530	485	6.200003200537	0
530	574	6.666516691671	0
530	589	6.668308691671	0
530	606	6.924022245796	0
530	614	6.944806387524	0
530	666	7.173540542497	0
530	704	7.434413798273	0
531	472	6.198187200537	51
531	485	6.200003200537	48
531	574	6.666516691671	51
531	589	6.668308691671	47
531	606	6.924022245796	47
531	614	6.944806387524	48
531	666	7.173540542497	47
531	704	7.434413798273	48
532	474	6.199095200537	51
532	487	6.200887200537	48
532	576	6.667424691671	51
532	593	6.669184691671	47
532	608	6.924898245796	47
532	616	6.945690387524	48
532	668	7.174416542497	47
532	706	7.435297798273	48
533	474	6.199095200537	44
533	487	6.200887200537	41
533	576	6.667424691671	44
533	593	6.669184691671	40
533	608	6.924898245796	40
533	616	6.945690387524	41
533	668	7.174416542497	40
533	706	7.435297798273	41
534	476	6.199095200537	1557051
534	476	6.199095200537	1557051
534	489	6.200887200537	1557051
534	618	6.945690387524	1557053
534	708	7.435297798273	1557054
535	476	6.199095200537	7504
535	489	6.200887200537	7504
536	476	6.199095200537	0
536	489	6.200887200537	0
536	489	6.200887200537	1
536	618	6.945690387524	0
536	618	6.945690387524	0
536	708	7.435297798273	0
536	708	7.435297798273	0
537	476	6.199095200537	7504
537	489	6.200887200537	7503
537	618	6.945690387524	7504
537	708	7.435297798273	7504
538	476	6.199095200537	1549547
538	489	6.200887200537	1549548
538	618	6.945690387524	1549549
538	708	7.435297798273	1549550
539	478	6.199095200537	44
539	493	6.200887200537	40
539	568	6.665608691671	44
539	581	6.667424691671	41
539	599	6.923138245796	41
539	621	6.945690387524	40
539	659	7.172656542497	41
539	711	7.435297798273	40
540	478	6.199095200537	44
540	493	6.200887200537	40
540	568	6.665608691671	44
540	581	6.667424691671	41
540	599	6.923138245796	41
540	621	6.945690387524	40
540	659	7.172656542497	41
540	711	7.435297798273	40
541	478	6.199095200537	1
541	478	6.199095200537	0
541	493	6.200887200537	1
541	493	6.200887200537	0
541	568	6.665608691671	1
541	568	6.665608691671	0
541	581	6.667424691671	1
541	581	6.667424691671	0
541	599	6.923138245796	1
541	599	6.923138245796	0
541	621	6.945690387524	1
541	621	6.945690387524	0
541	659	7.172656542497	1
541	659	7.172656542497	0
541	711	7.435297798273	1
541	711	7.435297798273	0
542	478	6.199095200537	44
542	493	6.200887200537	40
542	568	6.665608691671	44
542	581	6.667424691671	41
542	599	6.923138245796	41
542	621	6.945690387524	40
542	659	7.172656542497	41
542	711	7.435297798273	40
543	478	6.199095200537	0
543	493	6.200887200537	0
543	568	6.665608691671	0
543	581	6.667424691671	0
543	599	6.923138245796	0
543	621	6.945690387524	0
543	659	7.172656542497	0
543	711	7.435297798273	0
544	478	6.199095200537	51
544	493	6.200887200537	47
544	568	6.665608691671	51
544	581	6.667424691671	48
544	599	6.923138245796	48
544	621	6.945690387524	47
544	659	7.172656542497	48
544	711	7.435297798273	47
545	480	6.200003200537	51
545	497	6.201763200537	47
545	570	6.666516691671	51
545	583	6.668308691671	48
545	601	6.924022245796	48
545	623	6.946566387524	47
545	661	7.173540542497	48
545	713	7.436173798273	47
546	480	6.200003200537	44
546	497	6.201763200537	40
546	570	6.666516691671	44
546	583	6.668308691671	41
546	601	6.924022245796	41
546	623	6.946566387524	40
546	661	7.173540542497	41
546	713	7.436173798273	40
547	482	6.200003200537	1549773
547	499	6.201763200537	1549774
547	625	6.946566387524	1549774
547	715	7.436173798273	1549774
548	482	6.200003200537	1549547
548	499	6.201763200537	1549548
548	625	6.946566387524	1549549
548	715	7.436173798273	1549550
549	482	6.200003200537	7504
549	499	6.201763200537	7503
549	625	6.946566387524	7504
549	715	7.436173798273	7504
550	482	6.200003200537	1
550	499	6.201763200537	0
550	612	6.944806387524	1
550	625	6.946566387524	0
550	702	7.434413798273	1
550	715	7.436173798273	0
551	489	6.200887200537	1549547
551	618	6.945690387524	1549548
551	708	7.435297798273	1549549
552	489	6.200887200537	1549774
552	618	6.945690387524	1549774
552	708	7.435297798273	1549774
553	489	6.200887200537	0
554	489	6.200887200537	1072
555	489	6.200887200537	4294967295
556	489	6.200887200537	0
556	618	6.945690387524	0
556	708	7.435297798273	0
557	499	6.201763200537	0.00176
557	625	6.946566387524	0.00176
557	715	7.436173798273	0.00176
558	499	6.201763200537	0.00022
558	625	6.946566387524	0.0004125
558	715	7.436173798273	0.0005809375
559	499	6.201763200537	0.65647
559	625	6.946566387524	0.57460375
559	715	7.436173798273	0.50294671875
560	499	6.201763200537	2.6261
560	625	6.946566387524	2.2988275
560	715	7.436173798273	2.0123678125
561	499	6.201763200537	1072
561	625	6.946566387524	1608
561	715	7.436173798273	2144
562	499	6.201763200537	4294967295
562	625	6.946566387524	4294967295
562	715	7.436173798273	4294967295
563	499	6.201763200537	0
563	625	6.946566387524	0
563	715	7.436173798273	0
564	501	6.459425641652	0
564	514	6.461241641652	0
564	717	7.54898131962	0
564	777	7.866555892453	0
565	501	6.459425641652	7504
565	514	6.461241641652	1622588
565	514	6.461241641652	1622588
565	717	7.54898131962	1622588
565	777	7.866555892453	1622588
566	501	6.459425641652	7504
566	514	6.461241641652	7504
566	717	7.54898131962	7504
566	777	7.866555892453	7504
567	501	6.459425641652	0
567	514	6.461241641652	1615084
567	717	7.54898131962	1615084
567	777	7.866555892453	1615084
568	508	6.460333641652	1622361
568	508	6.460333641652	1622361
568	521	6.462125641652	1622361
568	723	7.54986531962	1622363
568	783	7.867439892453	1622364
569	508	6.460333641652	7504
569	521	6.462125641652	7504
570	508	6.460333641652	0
570	521	6.462125641652	0
570	521	6.462125641652	1
570	723	7.54986531962	0
570	723	7.54986531962	0
570	783	7.867439892453	0
570	783	7.867439892453	0
571	508	6.460333641652	7504
571	521	6.462125641652	7503
571	723	7.54986531962	7504
571	783	7.867439892453	7504
572	508	6.460333641652	1614857
572	521	6.462125641652	1614858
572	723	7.54986531962	1614859
572	783	7.867439892453	1614860
573	514	6.461241641652	1615083
573	531	6.463001641652	1615084
573	730	7.55074131962	1615084
573	790	7.868315892453	1615084
574	514	6.461241641652	1614857
574	531	6.463001641652	1614858
574	730	7.55074131962	1614859
574	790	7.868315892453	1614860
575	514	6.461241641652	7504
575	531	6.463001641652	7503
575	730	7.55074131962	7504
575	790	7.868315892453	7504
576	514	6.461241641652	1
576	531	6.463001641652	0
576	717	7.54898131962	1
576	730	7.55074131962	0
576	777	7.866555892453	1
576	790	7.868315892453	0
577	521	6.462125641652	1614857
577	723	7.54986531962	1614858
577	783	7.867439892453	1614859
578	521	6.462125641652	1615084
578	723	7.54986531962	1615084
578	783	7.867439892453	1615084
579	521	6.462125641652	0
580	521	6.462125641652	1072
581	521	6.462125641652	4294967295
582	521	6.462125641652	0
582	723	7.54986531962	0
582	783	7.867439892453	0
583	531	6.463001641652	0.00176
583	730	7.55074131962	0.00176
583	790	7.868315892453	0.00176
584	531	6.463001641652	0.00022
584	730	7.55074131962	0.0004125
584	790	7.868315892453	0.0005809375
585	531	6.463001641652	0.65647
585	730	7.55074131962	0.57460375
585	790	7.868315892453	0.50294671875
586	531	6.463001641652	2.6261
586	730	7.55074131962	2.2988275
586	790	7.868315892453	2.0123678125
587	531	6.463001641652	1072
587	730	7.55074131962	1608
587	790	7.868315892453	2144
588	531	6.463001641652	4294967295
588	730	7.55074131962	4294967295
588	790	7.868315892453	4294967295
589	531	6.463001641652	0
589	730	7.55074131962	0
589	790	7.868315892453	0
590	533	6.524979400006	0
590	546	6.526795400006	0
590	627	7.058518353832	0
590	822	8.135484997955	0
591	533	6.524979400006	7504
591	546	6.526795400006	1638976
591	546	6.526795400006	1638976
591	627	7.058518353832	1638976
591	822	8.135484997955	1638976
592	533	6.524979400006	7504
592	546	6.526795400006	7504
592	627	7.058518353832	7504
592	822	8.135484997955	7504
593	533	6.524979400006	0
593	546	6.526795400006	1631472
593	627	7.058518353832	1631472
593	822	8.135484997955	1631472
594	540	6.525887400006	1638749
594	540	6.525887400006	1638749
594	553	6.527679400006	1638749
594	633	7.059402353832	1638751
594	828	8.136368997955	1638752
595	540	6.525887400006	7504
595	553	6.527679400006	7504
596	540	6.525887400006	0
596	553	6.527679400006	0
596	553	6.527679400006	1
596	633	7.059402353832	0
596	633	7.059402353832	0
596	828	8.136368997955	0
596	828	8.136368997955	0
597	540	6.525887400006	7504
597	553	6.527679400006	7503
597	633	7.059402353832	7504
597	828	8.136368997955	7504
598	540	6.525887400006	1631245
598	553	6.527679400006	1631246
598	633	7.059402353832	1631247
598	828	8.136368997955	1631248
599	546	6.526795400006	1631471
599	563	6.528555400006	1631472
599	640	7.060278353832	1631472
599	839	8.137244997955	1631472
600	546	6.526795400006	1631245
600	563	6.528555400006	1631246
600	640	7.060278353832	1631247
600	839	8.137244997955	1631248
601	546	6.526795400006	7504
601	563	6.528555400006	7503
601	640	7.060278353832	7504
601	839	8.137244997955	7504
602	546	6.526795400006	1
602	563	6.528555400006	0
602	627	7.058518353832	1
602	640	7.060278353832	0
602	822	8.135484997955	1
602	839	8.137244997955	0
603	553	6.527679400006	1631245
603	633	7.059402353832	1631246
603	828	8.136368997955	1631247
604	553	6.527679400006	1631472
604	633	7.059402353832	1631472
604	828	8.136368997955	1631472
605	553	6.527679400006	0
606	553	6.527679400006	1072
607	553	6.527679400006	4294967295
608	553	6.527679400006	0
608	633	7.059402353832	0
608	828	8.136368997955	0
609	563	6.528555400006	0.00176
609	640	7.060278353832	0.00176
609	839	8.137244997955	0.00176
610	563	6.528555400006	0.00022
610	640	7.060278353832	0.0004125
610	839	8.137244997955	0.0005809375
611	563	6.528555400006	0.65647
611	640	7.060278353832	0.57460375
611	839	8.137244997955	0.50294671875
612	563	6.528555400006	2.6261
612	640	7.060278353832	2.2988275
612	839	8.137244997955	2.0123678125
613	563	6.528555400006	1072
613	640	7.060278353832	1608
613	839	8.137244997955	2144
614	563	6.528555400006	4294967295
614	640	7.060278353832	4294967295
614	839	8.137244997955	4294967295
615	563	6.528555400006	0
615	640	7.060278353832	0
615	839	8.137244997955	0
616	565	6.665608691671	0
616	578	6.667424691671	0
616	597	6.923138245796	0
616	657	7.172656542497	0
617	565	6.665608691671	7504
617	578	6.667424691671	1674134
617	578	6.667424691671	1674134
617	597	6.923138245796	1674134
617	657	7.172656542497	1674134
618	565	6.665608691671	7504
618	578	6.667424691671	7504
618	597	6.923138245796	7504
618	657	7.172656542497	7504
619	565	6.665608691671	0
619	578	6.667424691671	1666630
619	597	6.923138245796	1666630
619	657	7.172656542497	1666630
620	572	6.666516691671	1673907
620	572	6.666516691671	1673907
620	585	6.668308691671	1673907
620	603	6.924022245796	1673909
620	663	7.173540542497	1673910
621	572	6.666516691671	7504
621	585	6.668308691671	7504
622	572	6.666516691671	0
622	585	6.668308691671	0
622	585	6.668308691671	1
622	603	6.924022245796	0
622	603	6.924022245796	0
622	663	7.173540542497	0
622	663	7.173540542497	0
623	572	6.666516691671	7504
623	585	6.668308691671	7503
623	603	6.924022245796	7504
623	663	7.173540542497	7504
624	572	6.666516691671	1666403
624	585	6.668308691671	1666404
624	603	6.924022245796	1666405
624	663	7.173540542497	1666406
625	578	6.667424691671	1666629
625	595	6.669184691671	1666630
625	610	6.924898245796	1666630
625	670	7.174416542497	1666630
626	578	6.667424691671	1666403
626	595	6.669184691671	1666404
626	610	6.924898245796	1666405
626	670	7.174416542497	1666406
627	578	6.667424691671	7504
627	595	6.669184691671	7503
627	610	6.924898245796	7504
627	670	7.174416542497	7504
628	578	6.667424691671	1
628	595	6.669184691671	0
628	597	6.923138245796	1
628	610	6.924898245796	0
628	657	7.172656542497	1
628	670	7.174416542497	0
629	585	6.668308691671	1666403
629	603	6.924022245796	1666404
629	663	7.173540542497	1666405
630	585	6.668308691671	1666630
630	603	6.924022245796	1666630
630	663	7.173540542497	1666630
631	585	6.668308691671	0
632	585	6.668308691671	1072
633	585	6.668308691671	4294967295
634	585	6.668308691671	0
634	603	6.924022245796	0
634	663	7.173540542497	0
635	595	6.669184691671	0.00176
635	610	6.924898245796	0.00176
635	670	7.174416542497	0.00176
636	595	6.669184691671	0.00022
636	610	6.924898245796	0.0004125
636	670	7.174416542497	0.0005809375
637	595	6.669184691671	0.65647
637	610	6.924898245796	0.57460375
637	670	7.174416542497	0.50294671875
638	595	6.669184691671	2.6261
638	610	6.924898245796	2.2988275
638	670	7.174416542497	2.0123678125
639	595	6.669184691671	1072
639	610	6.924898245796	1608
639	670	7.174416542497	2144
640	595	6.669184691671	4294967295
640	610	6.924898245796	4294967295
640	670	7.174416542497	4294967295
641	595	6.669184691671	0
641	610	6.924898245796	0
641	670	7.174416542497	0

