file 145344 1641575196                                          
version 2
run J_34-0-20220107-18:06:32-13824
attr configname J_34
attr datetime 20220107-18:06:32
attr experiment J_34
attr inifile omnetpp.ini
attr iterationvars ""
attr iterationvarsf ""
attr measurement ""
attr network scenario
attr processid 13824
attr repetition 0
attr replication #0
attr resultdir results
attr runnumber 0
attr seedset 0
param **.client3.app[0].join 3.0
param **.client4.app[0].join 3.0
param **.ppp[*].ppp.queue.typename "\"DropTailQueue\""
param **.tcp.typename "\"Tcp\""
param **.tcp.nagleEnabled false
param **.cli*.app[*].nPar 5
param **.cli*.app[*].fPar 0
param **.numApps 1
param **.client0.app[*].typename "\"Node\""
param **.client0.app[0].localPort 1000
param **.client0.app[0].localPortL 1234
param **.client0.app[0].connectAddress "\"\""
param **.client0.app[0].connectPort 1234
param **.client1.app[*].typename "\"Node\""
param **.client1.app[0].localPort 1001
param **.client1.app[0].localPortL 1234
param **.client1.app[0].connectAddress "\"\""
param **.client1.app[0].connectPort 1234
param **.client2.app[*].typename "\"Node\""
param **.client2.app[0].localPort 1002
param **.client2.app[0].localPortL 1234
param **.client2.app[0].connectAddress "\"\""
param **.client2.app[0].connectPort 1234
param **.client3.app[*].typename "\"Node\""
param **.client3.app[0].localPort 1003
param **.client3.app[0].localPortL 1234
param **.client3.app[0].connectAddress "\"\""
param **.client3.app[0].connectPort 1234
param **.client4.app[*].typename "\"Node\""
param **.client4.app[0].localPort 1004
param **.client4.app[0].localPortL 1234
param **.client4.app[0].connectAddress "\"\""
param **.client4.app[0].connectPort 1234
param *.configurator.dumpAddresses true
param *.configurator.dumpTopology true
param *.configurator.dumpLinks true
param *.configurator.dumpRoutes true

vector 0 scenario.client0.ppp[0].ppp transmissionState:vector ETV
attr interpolationmode sample-hold
attr source transmissionStateChanged
attr title "tx state, vector"
vector 1 scenario.client0.ppp[1].ppp transmissionState:vector ETV
attr interpolationmode sample-hold
attr source transmissionStateChanged
attr title "tx state, vector"
vector 2 scenario.client0.ppp[2].ppp transmissionState:vector ETV
attr interpolationmode sample-hold
attr source transmissionStateChanged
attr title "tx state, vector"
vector 3 scenario.client0.ppp[3].ppp transmissionState:vector ETV
attr interpolationmode sample-hold
attr source transmissionStateChanged
attr title "tx state, vector"
vector 4 scenario.client1.ppp[0].ppp transmissionState:vector ETV
attr interpolationmode sample-hold
attr source transmissionStateChanged
attr title "tx state, vector"
vector 5 scenario.client1.ppp[1].ppp transmissionState:vector ETV
attr interpolationmode sample-hold
attr source transmissionStateChanged
attr title "tx state, vector"
vector 6 scenario.client1.ppp[2].ppp transmissionState:vector ETV
attr interpolationmode sample-hold
attr source transmissionStateChanged
attr title "tx state, vector"
vector 7 scenario.client1.ppp[3].ppp transmissionState:vector ETV
attr interpolationmode sample-hold
attr source transmissionStateChanged
attr title "tx state, vector"
vector 8 scenario.client2.ppp[0].ppp transmissionState:vector ETV
attr interpolationmode sample-hold
attr source transmissionStateChanged
attr title "tx state, vector"
vector 9 scenario.client2.ppp[1].ppp transmissionState:vector ETV
attr interpolationmode sample-hold
attr source transmissionStateChanged
attr title "tx state, vector"
vector 10 scenario.client2.ppp[2].ppp transmissionState:vector ETV
attr interpolationmode sample-hold
attr source transmissionStateChanged
attr title "tx state, vector"
vector 11 scenario.client2.ppp[3].ppp transmissionState:vector ETV
attr interpolationmode sample-hold
attr source transmissionStateChanged
attr title "tx state, vector"
vector 12 scenario.client3.ppp[0].ppp transmissionState:vector ETV
attr interpolationmode sample-hold
attr source transmissionStateChanged
attr title "tx state, vector"
vector 13 scenario.client3.ppp[1].ppp transmissionState:vector ETV
attr interpolationmode sample-hold
attr source transmissionStateChanged
attr title "tx state, vector"
vector 14 scenario.client3.ppp[2].ppp transmissionState:vector ETV
attr interpolationmode sample-hold
attr source transmissionStateChanged
attr title "tx state, vector"
vector 15 scenario.client3.ppp[3].ppp transmissionState:vector ETV
attr interpolationmode sample-hold
attr source transmissionStateChanged
attr title "tx state, vector"
vector 16 scenario.client4.ppp[0].ppp transmissionState:vector ETV
attr interpolationmode sample-hold
attr source transmissionStateChanged
attr title "tx state, vector"
vector 17 scenario.client4.ppp[1].ppp transmissionState:vector ETV
attr interpolationmode sample-hold
attr source transmissionStateChanged
attr title "tx state, vector"
vector 18 scenario.client4.ppp[2].ppp transmissionState:vector ETV
attr interpolationmode sample-hold
attr source transmissionStateChanged
attr title "tx state, vector"
vector 19 scenario.client4.ppp[3].ppp transmissionState:vector ETV
attr interpolationmode sample-hold
attr source transmissionStateChanged
attr title "tx state, vector"
vector 20 scenario.client4.tcp.conn-25 tcpRcvQueueBytes:vector ETV
attr interpolationmode sample-hold
vector 21 scenario.client4.tcp.conn-25 rcvAdv:vector ETV
attr interpolationmode sample-hold
vector 22 scenario.client4.tcp.conn-25 rcvWnd:vector ETV
attr interpolationmode sample-hold
vector 23 scenario.client4.tcp.conn-25 sndAck:vector ETV
attr interpolationmode sample-hold
vector 24 scenario.client4.ppp[1].ppp rcvdPkFromHl:vector(packetBytes) ETV
attr interpolationmode none
attr source packetReceivedFromUpper
attr title "packets received from higher layer, vector(packetBytes)"
vector 25 scenario.client4.ppp[1].ppp.queue packetPushed:vector(packetBytes) ETV
attr interpolationmode none
attr title "packet pushed, vector(packetBytes)"
vector 26 scenario.client4.ppp[1].ppp.queue queueLength:vector ETV
attr interpolationmode sample-hold
attr source "count(packetPushed) - count(packetPopped) - count(packetRemoved) - count(packetDropped)"
attr title "queue length, vector"
vector 27 scenario.client4.ppp[1].ppp.queue packetPopped:vector(packetBytes) ETV
attr interpolationmode none
attr title "packet popped, vector(packetBytes)"
vector 28 scenario.client4.ppp[1].ppp.queue queueingTime:vector ETV
attr interpolationmode none
attr source queueingTime(packetPopped)
attr title "queueing times, vector"
attr unit s
vector 29 scenario.client4.ppp[1].ppp txPk:vector(packetBytes) ETV
attr interpolationmode none
attr source packetSentToLower
attr title "packets transmitted, vector(packetBytes)"
vector 30 scenario.client1.ppp[3].ppp rxPkOk:vector(packetBytes) ETV
attr interpolationmode none
attr source rxPkOk
attr title "packets received OK, vector(packetBytes)"
vector 31 scenario.client1.ppp[3].ppp passedUpPk:vector(packetBytes) ETV
attr interpolationmode none
attr source packetSentToUpper
attr title "packets passed to higher layer, vector(packetBytes)"
vector 32 scenario.client1.tcp.conn-1 rcvSeq:vector ETV
attr interpolationmode sample-hold
vector 33 scenario.client1.tcp.conn-1 rcvAck:vector ETV
attr interpolationmode sample-hold
vector 34 scenario.client1.tcp.conn-26 rcvAdv:vector ETV
attr interpolationmode sample-hold
vector 35 scenario.client1.tcp.conn-26 sndWnd:vector ETV
attr interpolationmode sample-hold
vector 36 scenario.client1.tcp.conn-26 tcpRcvQueueBytes:vector ETV
attr interpolationmode sample-hold
vector 37 scenario.client1.tcp.conn-26 rcvWnd:vector ETV
attr interpolationmode sample-hold
vector 38 scenario.client1.tcp.conn-26 sndAck:vector ETV
attr interpolationmode sample-hold
vector 39 scenario.client1.ppp[3].ppp rcvdPkFromHl:vector(packetBytes) ETV
attr interpolationmode none
attr source packetReceivedFromUpper
attr title "packets received from higher layer, vector(packetBytes)"
vector 40 scenario.client1.ppp[3].ppp.queue packetPushed:vector(packetBytes) ETV
attr interpolationmode none
attr title "packet pushed, vector(packetBytes)"
vector 41 scenario.client1.ppp[3].ppp.queue queueLength:vector ETV
attr interpolationmode sample-hold
attr source "count(packetPushed) - count(packetPopped) - count(packetRemoved) - count(packetDropped)"
attr title "queue length, vector"
vector 42 scenario.client1.ppp[3].ppp.queue packetPopped:vector(packetBytes) ETV
attr interpolationmode none
attr title "packet popped, vector(packetBytes)"
vector 43 scenario.client1.ppp[3].ppp.queue queueingTime:vector ETV
attr interpolationmode none
attr source queueingTime(packetPopped)
attr title "queueing times, vector"
attr unit s
vector 44 scenario.client1.ppp[3].ppp txPk:vector(packetBytes) ETV
attr interpolationmode none
attr source packetSentToLower
attr title "packets transmitted, vector(packetBytes)"
vector 45 scenario.client4.ppp[1].ppp rxPkOk:vector(packetBytes) ETV
attr interpolationmode none
attr source rxPkOk
attr title "packets received OK, vector(packetBytes)"
vector 46 scenario.client4.ppp[1].ppp passedUpPk:vector(packetBytes) ETV
attr interpolationmode none
attr source packetSentToUpper
attr title "packets passed to higher layer, vector(packetBytes)"
vector 47 scenario.client4.tcp.conn-25 rcvSeq:vector ETV
attr interpolationmode sample-hold
vector 48 scenario.client4.tcp.conn-25 rcvAck:vector ETV
attr interpolationmode sample-hold
vector 49 scenario.client4.tcp.conn-25 sndWnd:vector ETV
attr interpolationmode sample-hold
vector 50 scenario.client4.tcp.conn-25 unacked:vector ETV
attr interpolationmode sample-hold
vector 51 scenario.client1.tcp.conn-26 rcvSeq:vector ETV
attr interpolationmode sample-hold
vector 52 scenario.client1.tcp.conn-26 rcvAck:vector ETV
attr interpolationmode sample-hold
vector 53 scenario.client1.tcp.conn-26 unacked:vector ETV
attr interpolationmode sample-hold
vector 54 scenario.client1.tcp.conn-26 cwnd:vector ETV
attr interpolationmode sample-hold
vector 55 scenario.client1.tcp.conn-26 ssthresh:vector ETV
attr interpolationmode sample-hold
vector 56 scenario.client1.tcp.conn-26 dupAcks:vector ETV
attr interpolationmode sample-hold
vector 57 scenario.client4.tcp.conn-25 rtt:vector ETV
attr interpolationmode sample-hold
vector 58 scenario.client4.tcp.conn-25 srtt:vector ETV
attr interpolationmode sample-hold
vector 59 scenario.client4.tcp.conn-25 rttvar:vector ETV
attr interpolationmode sample-hold
vector 60 scenario.client4.tcp.conn-25 rto:vector ETV
attr interpolationmode sample-hold
vector 61 scenario.client4.tcp.conn-25 cwnd:vector ETV
attr interpolationmode sample-hold
vector 62 scenario.client4.tcp.conn-25 ssthresh:vector ETV
attr interpolationmode sample-hold
vector 63 scenario.client4.tcp.conn-25 dupAcks:vector ETV
attr interpolationmode sample-hold
vector 64 scenario.client4.tcp.conn-27 tcpRcvQueueBytes:vector ETV
attr interpolationmode sample-hold
vector 65 scenario.client4.tcp.conn-27 rcvAdv:vector ETV
attr interpolationmode sample-hold
vector 66 scenario.client4.tcp.conn-27 rcvWnd:vector ETV
attr interpolationmode sample-hold
vector 67 scenario.client4.tcp.conn-27 sndAck:vector ETV
attr interpolationmode sample-hold
vector 68 scenario.client4.ppp[0].ppp rcvdPkFromHl:vector(packetBytes) ETV
attr interpolationmode none
attr source packetReceivedFromUpper
attr title "packets received from higher layer, vector(packetBytes)"
vector 69 scenario.client4.ppp[0].ppp.queue packetPushed:vector(packetBytes) ETV
attr interpolationmode none
attr title "packet pushed, vector(packetBytes)"
vector 70 scenario.client4.ppp[0].ppp.queue queueLength:vector ETV
attr interpolationmode sample-hold
attr source "count(packetPushed) - count(packetPopped) - count(packetRemoved) - count(packetDropped)"
attr title "queue length, vector"
vector 71 scenario.client4.ppp[0].ppp.queue packetPopped:vector(packetBytes) ETV
attr interpolationmode none
attr title "packet popped, vector(packetBytes)"
vector 72 scenario.client4.ppp[0].ppp.queue queueingTime:vector ETV
attr interpolationmode none
attr source queueingTime(packetPopped)
attr title "queueing times, vector"
attr unit s
vector 73 scenario.client4.ppp[0].ppp txPk:vector(packetBytes) ETV
attr interpolationmode none
attr source packetSentToLower
attr title "packets transmitted, vector(packetBytes)"
vector 74 scenario.client0.ppp[3].ppp rxPkOk:vector(packetBytes) ETV
attr interpolationmode none
attr source rxPkOk
attr title "packets received OK, vector(packetBytes)"
vector 75 scenario.client0.ppp[3].ppp passedUpPk:vector(packetBytes) ETV
attr interpolationmode none
attr source packetSentToUpper
attr title "packets passed to higher layer, vector(packetBytes)"
vector 76 scenario.client0.tcp.conn-0 rcvSeq:vector ETV
attr interpolationmode sample-hold
vector 77 scenario.client0.tcp.conn-0 rcvAck:vector ETV
attr interpolationmode sample-hold
vector 78 scenario.client0.tcp.conn-28 rcvAdv:vector ETV
attr interpolationmode sample-hold
vector 79 scenario.client0.tcp.conn-28 sndWnd:vector ETV
attr interpolationmode sample-hold
vector 80 scenario.client0.tcp.conn-28 tcpRcvQueueBytes:vector ETV
attr interpolationmode sample-hold
vector 81 scenario.client0.tcp.conn-28 rcvWnd:vector ETV
attr interpolationmode sample-hold
vector 82 scenario.client0.tcp.conn-28 sndAck:vector ETV
attr interpolationmode sample-hold
vector 83 scenario.client0.ppp[3].ppp rcvdPkFromHl:vector(packetBytes) ETV
attr interpolationmode none
attr source packetReceivedFromUpper
attr title "packets received from higher layer, vector(packetBytes)"
vector 84 scenario.client0.ppp[3].ppp.queue packetPushed:vector(packetBytes) ETV
attr interpolationmode none
attr title "packet pushed, vector(packetBytes)"
vector 85 scenario.client0.ppp[3].ppp.queue queueLength:vector ETV
attr interpolationmode sample-hold
attr source "count(packetPushed) - count(packetPopped) - count(packetRemoved) - count(packetDropped)"
attr title "queue length, vector"
vector 86 scenario.client0.ppp[3].ppp.queue packetPopped:vector(packetBytes) ETV
attr interpolationmode none
attr title "packet popped, vector(packetBytes)"
vector 87 scenario.client0.ppp[3].ppp.queue queueingTime:vector ETV
attr interpolationmode none
attr source queueingTime(packetPopped)
attr title "queueing times, vector"
attr unit s
vector 88 scenario.client0.ppp[3].ppp txPk:vector(packetBytes) ETV
attr interpolationmode none
attr source packetSentToLower
attr title "packets transmitted, vector(packetBytes)"
vector 89 scenario.client4.ppp[0].ppp rxPkOk:vector(packetBytes) ETV
attr interpolationmode none
attr source rxPkOk
attr title "packets received OK, vector(packetBytes)"
vector 90 scenario.client4.ppp[0].ppp passedUpPk:vector(packetBytes) ETV
attr interpolationmode none
attr source packetSentToUpper
attr title "packets passed to higher layer, vector(packetBytes)"
vector 91 scenario.client4.tcp.conn-27 rcvSeq:vector ETV
attr interpolationmode sample-hold
vector 92 scenario.client4.tcp.conn-27 rcvAck:vector ETV
attr interpolationmode sample-hold
vector 93 scenario.client4.tcp.conn-27 sndWnd:vector ETV
attr interpolationmode sample-hold
vector 94 scenario.client4.tcp.conn-27 unacked:vector ETV
attr interpolationmode sample-hold
vector 95 scenario.client0.tcp.conn-28 rcvSeq:vector ETV
attr interpolationmode sample-hold
vector 96 scenario.client0.tcp.conn-28 rcvAck:vector ETV
attr interpolationmode sample-hold
vector 97 scenario.client0.tcp.conn-28 unacked:vector ETV
attr interpolationmode sample-hold
vector 98 scenario.client0.tcp.conn-28 cwnd:vector ETV
attr interpolationmode sample-hold
vector 99 scenario.client0.tcp.conn-28 ssthresh:vector ETV
attr interpolationmode sample-hold
vector 100 scenario.client0.tcp.conn-28 dupAcks:vector ETV
attr interpolationmode sample-hold
vector 101 scenario.client4.tcp.conn-27 rtt:vector ETV
attr interpolationmode sample-hold
vector 102 scenario.client4.tcp.conn-27 srtt:vector ETV
attr interpolationmode sample-hold
vector 103 scenario.client4.tcp.conn-27 rttvar:vector ETV
attr interpolationmode sample-hold
vector 104 scenario.client4.tcp.conn-27 rto:vector ETV
attr interpolationmode sample-hold
vector 105 scenario.client4.tcp.conn-27 cwnd:vector ETV
attr interpolationmode sample-hold
vector 106 scenario.client4.tcp.conn-27 ssthresh:vector ETV
attr interpolationmode sample-hold
vector 107 scenario.client4.tcp.conn-27 dupAcks:vector ETV
attr interpolationmode sample-hold
vector 108 scenario.client0.tcp.conn-29 tcpRcvQueueBytes:vector ETV
attr interpolationmode sample-hold
vector 109 scenario.client0.tcp.conn-29 rcvAdv:vector ETV
attr interpolationmode sample-hold
vector 110 scenario.client0.tcp.conn-29 rcvWnd:vector ETV
attr interpolationmode sample-hold
vector 111 scenario.client0.tcp.conn-29 sndAck:vector ETV
attr interpolationmode sample-hold
vector 112 scenario.client4.tcp.conn-4 rcvSeq:vector ETV
attr interpolationmode sample-hold
vector 113 scenario.client4.tcp.conn-4 rcvAck:vector ETV
attr interpolationmode sample-hold
vector 114 scenario.client4.tcp.conn-30 rcvAdv:vector ETV
attr interpolationmode sample-hold
vector 115 scenario.client4.tcp.conn-30 sndWnd:vector ETV
attr interpolationmode sample-hold
vector 116 scenario.client4.tcp.conn-30 tcpRcvQueueBytes:vector ETV
attr interpolationmode sample-hold
vector 117 scenario.client4.tcp.conn-30 rcvWnd:vector ETV
attr interpolationmode sample-hold
vector 118 scenario.client4.tcp.conn-30 sndAck:vector ETV
attr interpolationmode sample-hold
vector 119 scenario.client3.tcp.conn-31 tcpRcvQueueBytes:vector ETV
attr interpolationmode sample-hold
vector 120 scenario.client3.tcp.conn-31 rcvAdv:vector ETV
attr interpolationmode sample-hold
vector 121 scenario.client3.tcp.conn-31 rcvWnd:vector ETV
attr interpolationmode sample-hold
vector 122 scenario.client3.tcp.conn-31 sndAck:vector ETV
attr interpolationmode sample-hold
vector 123 scenario.client3.ppp[2].ppp rcvdPkFromHl:vector(packetBytes) ETV
attr interpolationmode none
attr source packetReceivedFromUpper
attr title "packets received from higher layer, vector(packetBytes)"
vector 124 scenario.client3.ppp[2].ppp.queue packetPushed:vector(packetBytes) ETV
attr interpolationmode none
attr title "packet pushed, vector(packetBytes)"
vector 125 scenario.client3.ppp[2].ppp.queue queueLength:vector ETV
attr interpolationmode sample-hold
attr source "count(packetPushed) - count(packetPopped) - count(packetRemoved) - count(packetDropped)"
attr title "queue length, vector"
vector 126 scenario.client3.ppp[2].ppp.queue packetPopped:vector(packetBytes) ETV
attr interpolationmode none
attr title "packet popped, vector(packetBytes)"
vector 127 scenario.client3.ppp[2].ppp.queue queueingTime:vector ETV
attr interpolationmode none
attr source queueingTime(packetPopped)
attr title "queueing times, vector"
attr unit s
vector 128 scenario.client3.ppp[2].ppp txPk:vector(packetBytes) ETV
attr interpolationmode none
attr source packetSentToLower
attr title "packets transmitted, vector(packetBytes)"
vector 129 scenario.client0.tcp.conn-29 rcvSeq:vector ETV
attr interpolationmode sample-hold
vector 130 scenario.client0.tcp.conn-29 rcvAck:vector ETV
attr interpolationmode sample-hold
vector 131 scenario.client0.tcp.conn-29 sndWnd:vector ETV
attr interpolationmode sample-hold
vector 132 scenario.client0.tcp.conn-29 unacked:vector ETV
attr interpolationmode sample-hold
vector 133 scenario.client2.ppp[2].ppp rxPkOk:vector(packetBytes) ETV
attr interpolationmode none
attr source rxPkOk
attr title "packets received OK, vector(packetBytes)"
vector 134 scenario.client2.ppp[2].ppp passedUpPk:vector(packetBytes) ETV
attr interpolationmode none
attr source packetSentToUpper
attr title "packets passed to higher layer, vector(packetBytes)"
vector 135 scenario.client2.tcp.conn-2 rcvSeq:vector ETV
attr interpolationmode sample-hold
vector 136 scenario.client2.tcp.conn-2 rcvAck:vector ETV
attr interpolationmode sample-hold
vector 137 scenario.client2.tcp.conn-32 rcvAdv:vector ETV
attr interpolationmode sample-hold
vector 138 scenario.client2.tcp.conn-32 sndWnd:vector ETV
attr interpolationmode sample-hold
vector 139 scenario.client2.tcp.conn-32 tcpRcvQueueBytes:vector ETV
attr interpolationmode sample-hold
vector 140 scenario.client2.tcp.conn-32 rcvWnd:vector ETV
attr interpolationmode sample-hold
vector 141 scenario.client2.tcp.conn-32 sndAck:vector ETV
attr interpolationmode sample-hold
vector 142 scenario.client2.ppp[2].ppp rcvdPkFromHl:vector(packetBytes) ETV
attr interpolationmode none
attr source packetReceivedFromUpper
attr title "packets received from higher layer, vector(packetBytes)"
vector 143 scenario.client2.ppp[2].ppp.queue packetPushed:vector(packetBytes) ETV
attr interpolationmode none
attr title "packet pushed, vector(packetBytes)"
vector 144 scenario.client2.ppp[2].ppp.queue queueLength:vector ETV
attr interpolationmode sample-hold
attr source "count(packetPushed) - count(packetPopped) - count(packetRemoved) - count(packetDropped)"
attr title "queue length, vector"
vector 145 scenario.client2.ppp[2].ppp.queue packetPopped:vector(packetBytes) ETV
attr interpolationmode none
attr title "packet popped, vector(packetBytes)"
vector 146 scenario.client2.ppp[2].ppp.queue queueingTime:vector ETV
attr interpolationmode none
attr source queueingTime(packetPopped)
attr title "queueing times, vector"
attr unit s
vector 147 scenario.client2.ppp[2].ppp txPk:vector(packetBytes) ETV
attr interpolationmode none
attr source packetSentToLower
attr title "packets transmitted, vector(packetBytes)"
vector 148 scenario.client4.tcp.conn-30 rcvSeq:vector ETV
attr interpolationmode sample-hold
vector 149 scenario.client4.tcp.conn-30 rcvAck:vector ETV
attr interpolationmode sample-hold
vector 150 scenario.client4.tcp.conn-30 unacked:vector ETV
attr interpolationmode sample-hold
vector 151 scenario.client4.tcp.conn-30 cwnd:vector ETV
attr interpolationmode sample-hold
vector 152 scenario.client4.tcp.conn-30 ssthresh:vector ETV
attr interpolationmode sample-hold
vector 153 scenario.client4.tcp.conn-30 dupAcks:vector ETV
attr interpolationmode sample-hold
vector 154 scenario.client3.ppp[2].ppp rxPkOk:vector(packetBytes) ETV
attr interpolationmode none
attr source rxPkOk
attr title "packets received OK, vector(packetBytes)"
vector 155 scenario.client3.ppp[2].ppp passedUpPk:vector(packetBytes) ETV
attr interpolationmode none
attr source packetSentToUpper
attr title "packets passed to higher layer, vector(packetBytes)"
vector 156 scenario.client3.tcp.conn-31 rcvSeq:vector ETV
attr interpolationmode sample-hold
vector 157 scenario.client3.tcp.conn-31 rcvAck:vector ETV
attr interpolationmode sample-hold
vector 158 scenario.client3.tcp.conn-31 sndWnd:vector ETV
attr interpolationmode sample-hold
vector 159 scenario.client3.tcp.conn-31 unacked:vector ETV
attr interpolationmode sample-hold
vector 160 scenario.client0.tcp.conn-29 rtt:vector ETV
attr interpolationmode sample-hold
vector 161 scenario.client0.tcp.conn-29 srtt:vector ETV
attr interpolationmode sample-hold
vector 162 scenario.client0.tcp.conn-29 rttvar:vector ETV
attr interpolationmode sample-hold
vector 163 scenario.client0.tcp.conn-29 rto:vector ETV
attr interpolationmode sample-hold
vector 164 scenario.client0.tcp.conn-29 cwnd:vector ETV
attr interpolationmode sample-hold
vector 165 scenario.client0.tcp.conn-29 ssthresh:vector ETV
attr interpolationmode sample-hold
vector 166 scenario.client0.tcp.conn-29 dupAcks:vector ETV
attr interpolationmode sample-hold
vector 167 scenario.client2.tcp.conn-32 rcvSeq:vector ETV
attr interpolationmode sample-hold
vector 168 scenario.client2.tcp.conn-32 rcvAck:vector ETV
attr interpolationmode sample-hold
vector 169 scenario.client2.tcp.conn-32 unacked:vector ETV
attr interpolationmode sample-hold
vector 170 scenario.client2.tcp.conn-32 cwnd:vector ETV
attr interpolationmode sample-hold
vector 171 scenario.client2.tcp.conn-32 ssthresh:vector ETV
attr interpolationmode sample-hold
vector 172 scenario.client2.tcp.conn-32 dupAcks:vector ETV
attr interpolationmode sample-hold
vector 173 scenario.client3.tcp.conn-31 rtt:vector ETV
attr interpolationmode sample-hold
vector 174 scenario.client3.tcp.conn-31 srtt:vector ETV
attr interpolationmode sample-hold
vector 175 scenario.client3.tcp.conn-31 rttvar:vector ETV
attr interpolationmode sample-hold
vector 176 scenario.client3.tcp.conn-31 rto:vector ETV
attr interpolationmode sample-hold
vector 177 scenario.client3.tcp.conn-31 cwnd:vector ETV
attr interpolationmode sample-hold
vector 178 scenario.client3.tcp.conn-31 ssthresh:vector ETV
attr interpolationmode sample-hold
vector 179 scenario.client3.tcp.conn-31 dupAcks:vector ETV
attr interpolationmode sample-hold
vector 180 scenario.client2.tcp.conn-33 tcpRcvQueueBytes:vector ETV
attr interpolationmode sample-hold
vector 181 scenario.client2.tcp.conn-33 rcvAdv:vector ETV
attr interpolationmode sample-hold
vector 182 scenario.client2.tcp.conn-33 rcvWnd:vector ETV
attr interpolationmode sample-hold
vector 183 scenario.client2.tcp.conn-33 sndAck:vector ETV
attr interpolationmode sample-hold
vector 184 scenario.client3.tcp.conn-3 rcvSeq:vector ETV
attr interpolationmode sample-hold
vector 185 scenario.client3.tcp.conn-3 rcvAck:vector ETV
attr interpolationmode sample-hold
vector 186 scenario.client3.tcp.conn-34 rcvAdv:vector ETV
attr interpolationmode sample-hold
vector 187 scenario.client3.tcp.conn-34 sndWnd:vector ETV
attr interpolationmode sample-hold
vector 188 scenario.client3.tcp.conn-34 tcpRcvQueueBytes:vector ETV
attr interpolationmode sample-hold
vector 189 scenario.client3.tcp.conn-34 rcvWnd:vector ETV
attr interpolationmode sample-hold
vector 190 scenario.client3.tcp.conn-34 sndAck:vector ETV
attr interpolationmode sample-hold
vector 191 scenario.client2.tcp.conn-33 rcvSeq:vector ETV
attr interpolationmode sample-hold
vector 192 scenario.client2.tcp.conn-33 rcvAck:vector ETV
attr interpolationmode sample-hold
vector 193 scenario.client2.tcp.conn-33 sndWnd:vector ETV
attr interpolationmode sample-hold
vector 194 scenario.client2.tcp.conn-33 unacked:vector ETV
attr interpolationmode sample-hold
vector 195 scenario.client3.tcp.conn-34 rcvSeq:vector ETV
attr interpolationmode sample-hold
vector 196 scenario.client3.tcp.conn-34 rcvAck:vector ETV
attr interpolationmode sample-hold
vector 197 scenario.client3.tcp.conn-34 unacked:vector ETV
attr interpolationmode sample-hold
vector 198 scenario.client3.tcp.conn-34 cwnd:vector ETV
attr interpolationmode sample-hold
vector 199 scenario.client3.tcp.conn-34 ssthresh:vector ETV
attr interpolationmode sample-hold
vector 200 scenario.client3.tcp.conn-34 dupAcks:vector ETV
attr interpolationmode sample-hold
vector 201 scenario.client2.tcp.conn-33 rtt:vector ETV
attr interpolationmode sample-hold
vector 202 scenario.client2.tcp.conn-33 srtt:vector ETV
attr interpolationmode sample-hold
vector 203 scenario.client2.tcp.conn-33 rttvar:vector ETV
attr interpolationmode sample-hold
vector 204 scenario.client2.tcp.conn-33 rto:vector ETV
attr interpolationmode sample-hold
vector 205 scenario.client2.tcp.conn-33 cwnd:vector ETV
attr interpolationmode sample-hold
vector 206 scenario.client2.tcp.conn-33 ssthresh:vector ETV
attr interpolationmode sample-hold
vector 207 scenario.client2.tcp.conn-33 dupAcks:vector ETV
attr interpolationmode sample-hold
vector 208 scenario.client1.tcp.conn-35 tcpRcvQueueBytes:vector ETV
attr interpolationmode sample-hold
vector 209 scenario.client1.tcp.conn-35 rcvAdv:vector ETV
attr interpolationmode sample-hold
vector 210 scenario.client1.tcp.conn-35 rcvWnd:vector ETV
attr interpolationmode sample-hold
vector 211 scenario.client1.tcp.conn-35 sndAck:vector ETV
attr interpolationmode sample-hold
vector 212 scenario.client4.tcp.conn-36 rcvAdv:vector ETV
attr interpolationmode sample-hold
vector 213 scenario.client4.tcp.conn-36 sndWnd:vector ETV
attr interpolationmode sample-hold
vector 214 scenario.client4.tcp.conn-36 tcpRcvQueueBytes:vector ETV
attr interpolationmode sample-hold
vector 215 scenario.client4.tcp.conn-36 rcvWnd:vector ETV
attr interpolationmode sample-hold
vector 216 scenario.client4.tcp.conn-36 sndAck:vector ETV
attr interpolationmode sample-hold
vector 217 scenario.client1.tcp.conn-35 rcvSeq:vector ETV
attr interpolationmode sample-hold
vector 218 scenario.client1.tcp.conn-35 rcvAck:vector ETV
attr interpolationmode sample-hold
vector 219 scenario.client1.tcp.conn-35 sndWnd:vector ETV
attr interpolationmode sample-hold
vector 220 scenario.client1.tcp.conn-35 unacked:vector ETV
attr interpolationmode sample-hold
vector 221 scenario.client4.tcp.conn-36 rcvSeq:vector ETV
attr interpolationmode sample-hold
vector 222 scenario.client4.tcp.conn-36 rcvAck:vector ETV
attr interpolationmode sample-hold
vector 223 scenario.client4.tcp.conn-36 unacked:vector ETV
attr interpolationmode sample-hold
vector 224 scenario.client4.tcp.conn-36 cwnd:vector ETV
attr interpolationmode sample-hold
vector 225 scenario.client4.tcp.conn-36 ssthresh:vector ETV
attr interpolationmode sample-hold
vector 226 scenario.client4.tcp.conn-36 dupAcks:vector ETV
attr interpolationmode sample-hold
vector 227 scenario.client1.tcp.conn-35 rtt:vector ETV
attr interpolationmode sample-hold
vector 228 scenario.client1.tcp.conn-35 srtt:vector ETV
attr interpolationmode sample-hold
vector 229 scenario.client1.tcp.conn-35 rttvar:vector ETV
attr interpolationmode sample-hold
vector 230 scenario.client1.tcp.conn-35 rto:vector ETV
attr interpolationmode sample-hold
vector 231 scenario.client1.tcp.conn-35 cwnd:vector ETV
attr interpolationmode sample-hold
vector 232 scenario.client1.tcp.conn-35 ssthresh:vector ETV
attr interpolationmode sample-hold
vector 233 scenario.client1.tcp.conn-35 dupAcks:vector ETV
attr interpolationmode sample-hold
vector 234 scenario.client4.tcp.conn-37 tcpRcvQueueBytes:vector ETV
attr interpolationmode sample-hold
vector 235 scenario.client4.tcp.conn-37 rcvAdv:vector ETV
attr interpolationmode sample-hold
vector 236 scenario.client4.tcp.conn-37 rcvWnd:vector ETV
attr interpolationmode sample-hold
vector 237 scenario.client4.tcp.conn-37 sndAck:vector ETV
attr interpolationmode sample-hold
vector 238 scenario.client4.ppp[2].ppp rcvdPkFromHl:vector(packetBytes) ETV
attr interpolationmode none
attr source packetReceivedFromUpper
attr title "packets received from higher layer, vector(packetBytes)"
vector 239 scenario.client4.ppp[2].ppp.queue packetPushed:vector(packetBytes) ETV
attr interpolationmode none
attr title "packet pushed, vector(packetBytes)"
vector 240 scenario.client4.ppp[2].ppp.queue queueLength:vector ETV
attr interpolationmode sample-hold
attr source "count(packetPushed) - count(packetPopped) - count(packetRemoved) - count(packetDropped)"
attr title "queue length, vector"
vector 241 scenario.client4.ppp[2].ppp.queue packetPopped:vector(packetBytes) ETV
attr interpolationmode none
attr title "packet popped, vector(packetBytes)"
vector 242 scenario.client4.ppp[2].ppp.queue queueingTime:vector ETV
attr interpolationmode none
attr source queueingTime(packetPopped)
attr title "queueing times, vector"
attr unit s
vector 243 scenario.client4.ppp[2].ppp txPk:vector(packetBytes) ETV
attr interpolationmode none
attr source packetSentToLower
attr title "packets transmitted, vector(packetBytes)"
vector 244 scenario.client2.ppp[3].ppp rxPkOk:vector(packetBytes) ETV
attr interpolationmode none
attr source rxPkOk
attr title "packets received OK, vector(packetBytes)"
vector 245 scenario.client2.ppp[3].ppp passedUpPk:vector(packetBytes) ETV
attr interpolationmode none
attr source packetSentToUpper
attr title "packets passed to higher layer, vector(packetBytes)"
vector 246 scenario.client2.tcp.conn-38 rcvAdv:vector ETV
attr interpolationmode sample-hold
vector 247 scenario.client2.tcp.conn-38 sndWnd:vector ETV
attr interpolationmode sample-hold
vector 248 scenario.client2.tcp.conn-38 tcpRcvQueueBytes:vector ETV
attr interpolationmode sample-hold
vector 249 scenario.client2.tcp.conn-38 rcvWnd:vector ETV
attr interpolationmode sample-hold
vector 250 scenario.client2.tcp.conn-38 sndAck:vector ETV
attr interpolationmode sample-hold
vector 251 scenario.client2.ppp[3].ppp rcvdPkFromHl:vector(packetBytes) ETV
attr interpolationmode none
attr source packetReceivedFromUpper
attr title "packets received from higher layer, vector(packetBytes)"
vector 252 scenario.client2.ppp[3].ppp.queue packetPushed:vector(packetBytes) ETV
attr interpolationmode none
attr title "packet pushed, vector(packetBytes)"
vector 253 scenario.client2.ppp[3].ppp.queue queueLength:vector ETV
attr interpolationmode sample-hold
attr source "count(packetPushed) - count(packetPopped) - count(packetRemoved) - count(packetDropped)"
attr title "queue length, vector"
vector 254 scenario.client2.ppp[3].ppp.queue packetPopped:vector(packetBytes) ETV
attr interpolationmode none
attr title "packet popped, vector(packetBytes)"
vector 255 scenario.client2.ppp[3].ppp.queue queueingTime:vector ETV
attr interpolationmode none
attr source queueingTime(packetPopped)
attr title "queueing times, vector"
attr unit s
vector 256 scenario.client2.ppp[3].ppp txPk:vector(packetBytes) ETV
attr interpolationmode none
attr source packetSentToLower
attr title "packets transmitted, vector(packetBytes)"
vector 257 scenario.client4.ppp[2].ppp rxPkOk:vector(packetBytes) ETV
attr interpolationmode none
attr source rxPkOk
attr title "packets received OK, vector(packetBytes)"
vector 258 scenario.client4.ppp[2].ppp passedUpPk:vector(packetBytes) ETV
attr interpolationmode none
attr source packetSentToUpper
attr title "packets passed to higher layer, vector(packetBytes)"
vector 259 scenario.client4.tcp.conn-37 rcvSeq:vector ETV
attr interpolationmode sample-hold
vector 260 scenario.client4.tcp.conn-37 rcvAck:vector ETV
attr interpolationmode sample-hold
vector 261 scenario.client4.tcp.conn-37 sndWnd:vector ETV
attr interpolationmode sample-hold
vector 262 scenario.client4.tcp.conn-37 unacked:vector ETV
attr interpolationmode sample-hold
vector 263 scenario.client2.tcp.conn-38 rcvSeq:vector ETV
attr interpolationmode sample-hold
vector 264 scenario.client2.tcp.conn-38 rcvAck:vector ETV
attr interpolationmode sample-hold
vector 265 scenario.client2.tcp.conn-38 unacked:vector ETV
attr interpolationmode sample-hold
vector 266 scenario.client2.tcp.conn-38 cwnd:vector ETV
attr interpolationmode sample-hold
vector 267 scenario.client2.tcp.conn-38 ssthresh:vector ETV
attr interpolationmode sample-hold
vector 268 scenario.client2.tcp.conn-38 dupAcks:vector ETV
attr interpolationmode sample-hold
vector 269 scenario.client4.tcp.conn-37 rtt:vector ETV
attr interpolationmode sample-hold
vector 270 scenario.client4.tcp.conn-37 srtt:vector ETV
attr interpolationmode sample-hold
vector 271 scenario.client4.tcp.conn-37 rttvar:vector ETV
attr interpolationmode sample-hold
vector 272 scenario.client4.tcp.conn-37 rto:vector ETV
attr interpolationmode sample-hold
vector 273 scenario.client4.tcp.conn-37 cwnd:vector ETV
attr interpolationmode sample-hold
vector 274 scenario.client4.tcp.conn-37 ssthresh:vector ETV
attr interpolationmode sample-hold
vector 275 scenario.client4.tcp.conn-37 dupAcks:vector ETV
attr interpolationmode sample-hold
vector 276 scenario.client3.tcp.conn-39 tcpRcvQueueBytes:vector ETV
attr interpolationmode sample-hold
vector 277 scenario.client3.tcp.conn-39 rcvAdv:vector ETV
attr interpolationmode sample-hold
vector 278 scenario.client3.tcp.conn-39 rcvWnd:vector ETV
attr interpolationmode sample-hold
vector 279 scenario.client3.tcp.conn-39 sndAck:vector ETV
attr interpolationmode sample-hold
vector 280 scenario.client3.ppp[0].ppp rcvdPkFromHl:vector(packetBytes) ETV
attr interpolationmode none
attr source packetReceivedFromUpper
attr title "packets received from higher layer, vector(packetBytes)"
vector 281 scenario.client3.ppp[0].ppp.queue packetPushed:vector(packetBytes) ETV
attr interpolationmode none
attr title "packet pushed, vector(packetBytes)"
vector 282 scenario.client3.ppp[0].ppp.queue queueLength:vector ETV
attr interpolationmode sample-hold
attr source "count(packetPushed) - count(packetPopped) - count(packetRemoved) - count(packetDropped)"
attr title "queue length, vector"
vector 283 scenario.client3.ppp[0].ppp.queue packetPopped:vector(packetBytes) ETV
attr interpolationmode none
attr title "packet popped, vector(packetBytes)"
vector 284 scenario.client3.ppp[0].ppp.queue queueingTime:vector ETV
attr interpolationmode none
attr source queueingTime(packetPopped)
attr title "queueing times, vector"
attr unit s
vector 285 scenario.client3.ppp[0].ppp txPk:vector(packetBytes) ETV
attr interpolationmode none
attr source packetSentToLower
attr title "packets transmitted, vector(packetBytes)"
vector 286 scenario.client0.ppp[2].ppp rxPkOk:vector(packetBytes) ETV
attr interpolationmode none
attr source rxPkOk
attr title "packets received OK, vector(packetBytes)"
vector 287 scenario.client0.ppp[2].ppp passedUpPk:vector(packetBytes) ETV
attr interpolationmode none
attr source packetSentToUpper
attr title "packets passed to higher layer, vector(packetBytes)"
vector 288 scenario.client0.tcp.conn-40 rcvAdv:vector ETV
attr interpolationmode sample-hold
vector 289 scenario.client0.tcp.conn-40 sndWnd:vector ETV
attr interpolationmode sample-hold
vector 290 scenario.client0.tcp.conn-40 tcpRcvQueueBytes:vector ETV
attr interpolationmode sample-hold
vector 291 scenario.client0.tcp.conn-40 rcvWnd:vector ETV
attr interpolationmode sample-hold
vector 292 scenario.client0.tcp.conn-40 sndAck:vector ETV
attr interpolationmode sample-hold
vector 293 scenario.client0.ppp[2].ppp rcvdPkFromHl:vector(packetBytes) ETV
attr interpolationmode none
attr source packetReceivedFromUpper
attr title "packets received from higher layer, vector(packetBytes)"
vector 294 scenario.client0.ppp[2].ppp.queue packetPushed:vector(packetBytes) ETV
attr interpolationmode none
attr title "packet pushed, vector(packetBytes)"
vector 295 scenario.client0.ppp[2].ppp.queue queueLength:vector ETV
attr interpolationmode sample-hold
attr source "count(packetPushed) - count(packetPopped) - count(packetRemoved) - count(packetDropped)"
attr title "queue length, vector"
vector 296 scenario.client0.ppp[2].ppp.queue packetPopped:vector(packetBytes) ETV
attr interpolationmode none
attr title "packet popped, vector(packetBytes)"
vector 297 scenario.client0.ppp[2].ppp.queue queueingTime:vector ETV
attr interpolationmode none
attr source queueingTime(packetPopped)
attr title "queueing times, vector"
attr unit s
vector 298 scenario.client0.ppp[2].ppp txPk:vector(packetBytes) ETV
attr interpolationmode none
attr source packetSentToLower
attr title "packets transmitted, vector(packetBytes)"
vector 299 scenario.client3.ppp[0].ppp rxPkOk:vector(packetBytes) ETV
attr interpolationmode none
attr source rxPkOk
attr title "packets received OK, vector(packetBytes)"
vector 300 scenario.client3.ppp[0].ppp passedUpPk:vector(packetBytes) ETV
attr interpolationmode none
attr source packetSentToUpper
attr title "packets passed to higher layer, vector(packetBytes)"
vector 301 scenario.client3.tcp.conn-39 rcvSeq:vector ETV
attr interpolationmode sample-hold
vector 302 scenario.client3.tcp.conn-39 rcvAck:vector ETV
attr interpolationmode sample-hold
vector 303 scenario.client3.tcp.conn-39 sndWnd:vector ETV
attr interpolationmode sample-hold
vector 304 scenario.client3.tcp.conn-39 unacked:vector ETV
attr interpolationmode sample-hold
vector 305 scenario.client0.tcp.conn-40 rcvSeq:vector ETV
attr interpolationmode sample-hold
vector 306 scenario.client0.tcp.conn-40 rcvAck:vector ETV
attr interpolationmode sample-hold
vector 307 scenario.client0.tcp.conn-40 unacked:vector ETV
attr interpolationmode sample-hold
vector 308 scenario.client0.tcp.conn-40 cwnd:vector ETV
attr interpolationmode sample-hold
vector 309 scenario.client0.tcp.conn-40 ssthresh:vector ETV
attr interpolationmode sample-hold
vector 310 scenario.client0.tcp.conn-40 dupAcks:vector ETV
attr interpolationmode sample-hold
vector 311 scenario.client3.tcp.conn-39 rtt:vector ETV
attr interpolationmode sample-hold
vector 312 scenario.client3.tcp.conn-39 srtt:vector ETV
attr interpolationmode sample-hold
vector 313 scenario.client3.tcp.conn-39 rttvar:vector ETV
attr interpolationmode sample-hold
vector 314 scenario.client3.tcp.conn-39 rto:vector ETV
attr interpolationmode sample-hold
vector 315 scenario.client3.tcp.conn-39 cwnd:vector ETV
attr interpolationmode sample-hold
vector 316 scenario.client3.tcp.conn-39 ssthresh:vector ETV
attr interpolationmode sample-hold
vector 317 scenario.client3.tcp.conn-39 dupAcks:vector ETV
attr interpolationmode sample-hold
vector 318 scenario.client3.tcp.conn-41 tcpRcvQueueBytes:vector ETV
attr interpolationmode sample-hold
vector 319 scenario.client3.tcp.conn-41 rcvAdv:vector ETV
attr interpolationmode sample-hold
vector 320 scenario.client3.tcp.conn-41 rcvWnd:vector ETV
attr interpolationmode sample-hold
vector 321 scenario.client3.tcp.conn-41 sndAck:vector ETV
attr interpolationmode sample-hold
vector 322 scenario.client3.ppp[1].ppp rcvdPkFromHl:vector(packetBytes) ETV
attr interpolationmode none
attr source packetReceivedFromUpper
attr title "packets received from higher layer, vector(packetBytes)"
vector 323 scenario.client3.ppp[1].ppp.queue packetPushed:vector(packetBytes) ETV
attr interpolationmode none
attr title "packet pushed, vector(packetBytes)"
vector 324 scenario.client3.ppp[1].ppp.queue queueLength:vector ETV
attr interpolationmode sample-hold
attr source "count(packetPushed) - count(packetPopped) - count(packetRemoved) - count(packetDropped)"
attr title "queue length, vector"
vector 325 scenario.client3.ppp[1].ppp.queue packetPopped:vector(packetBytes) ETV
attr interpolationmode none
attr title "packet popped, vector(packetBytes)"
vector 326 scenario.client3.ppp[1].ppp.queue queueingTime:vector ETV
attr interpolationmode none
attr source queueingTime(packetPopped)
attr title "queueing times, vector"
attr unit s
vector 327 scenario.client3.ppp[1].ppp txPk:vector(packetBytes) ETV
attr interpolationmode none
attr source packetSentToLower
attr title "packets transmitted, vector(packetBytes)"
vector 328 scenario.client1.ppp[2].ppp rxPkOk:vector(packetBytes) ETV
attr interpolationmode none
attr source rxPkOk
attr title "packets received OK, vector(packetBytes)"
vector 329 scenario.client1.ppp[2].ppp passedUpPk:vector(packetBytes) ETV
attr interpolationmode none
attr source packetSentToUpper
attr title "packets passed to higher layer, vector(packetBytes)"
vector 330 scenario.client1.tcp.conn-42 rcvAdv:vector ETV
attr interpolationmode sample-hold
vector 331 scenario.client1.tcp.conn-42 sndWnd:vector ETV
attr interpolationmode sample-hold
vector 332 scenario.client1.tcp.conn-42 tcpRcvQueueBytes:vector ETV
attr interpolationmode sample-hold
vector 333 scenario.client1.tcp.conn-42 rcvWnd:vector ETV
attr interpolationmode sample-hold
vector 334 scenario.client1.tcp.conn-42 sndAck:vector ETV
attr interpolationmode sample-hold
vector 335 scenario.client1.ppp[2].ppp rcvdPkFromHl:vector(packetBytes) ETV
attr interpolationmode none
attr source packetReceivedFromUpper
attr title "packets received from higher layer, vector(packetBytes)"
vector 336 scenario.client1.ppp[2].ppp.queue packetPushed:vector(packetBytes) ETV
attr interpolationmode none
attr title "packet pushed, vector(packetBytes)"
vector 337 scenario.client1.ppp[2].ppp.queue queueLength:vector ETV
attr interpolationmode sample-hold
attr source "count(packetPushed) - count(packetPopped) - count(packetRemoved) - count(packetDropped)"
attr title "queue length, vector"
vector 338 scenario.client1.ppp[2].ppp.queue packetPopped:vector(packetBytes) ETV
attr interpolationmode none
attr title "packet popped, vector(packetBytes)"
vector 339 scenario.client1.ppp[2].ppp.queue queueingTime:vector ETV
attr interpolationmode none
attr source queueingTime(packetPopped)
attr title "queueing times, vector"
attr unit s
vector 340 scenario.client1.ppp[2].ppp txPk:vector(packetBytes) ETV
attr interpolationmode none
attr source packetSentToLower
attr title "packets transmitted, vector(packetBytes)"
vector 341 scenario.client3.ppp[1].ppp rxPkOk:vector(packetBytes) ETV
attr interpolationmode none
attr source rxPkOk
attr title "packets received OK, vector(packetBytes)"
vector 342 scenario.client3.ppp[1].ppp passedUpPk:vector(packetBytes) ETV
attr interpolationmode none
attr source packetSentToUpper
attr title "packets passed to higher layer, vector(packetBytes)"
vector 343 scenario.client3.tcp.conn-41 rcvSeq:vector ETV
attr interpolationmode sample-hold
vector 344 scenario.client3.tcp.conn-41 rcvAck:vector ETV
attr interpolationmode sample-hold
vector 345 scenario.client3.tcp.conn-41 sndWnd:vector ETV
attr interpolationmode sample-hold
vector 346 scenario.client3.tcp.conn-41 unacked:vector ETV
attr interpolationmode sample-hold
vector 347 scenario.client1.tcp.conn-42 rcvSeq:vector ETV
attr interpolationmode sample-hold
vector 348 scenario.client1.tcp.conn-42 rcvAck:vector ETV
attr interpolationmode sample-hold
vector 349 scenario.client1.tcp.conn-42 unacked:vector ETV
attr interpolationmode sample-hold
vector 350 scenario.client1.tcp.conn-42 cwnd:vector ETV
attr interpolationmode sample-hold
vector 351 scenario.client1.tcp.conn-42 ssthresh:vector ETV
attr interpolationmode sample-hold
vector 352 scenario.client1.tcp.conn-42 dupAcks:vector ETV
attr interpolationmode sample-hold
vector 353 scenario.client3.tcp.conn-41 rtt:vector ETV
attr interpolationmode sample-hold
vector 354 scenario.client3.tcp.conn-41 srtt:vector ETV
attr interpolationmode sample-hold
vector 355 scenario.client3.tcp.conn-41 rttvar:vector ETV
attr interpolationmode sample-hold
vector 356 scenario.client3.tcp.conn-41 rto:vector ETV
attr interpolationmode sample-hold
vector 357 scenario.client3.tcp.conn-41 cwnd:vector ETV
attr interpolationmode sample-hold
vector 358 scenario.client3.tcp.conn-41 ssthresh:vector ETV
attr interpolationmode sample-hold
vector 359 scenario.client3.tcp.conn-41 dupAcks:vector ETV
attr interpolationmode sample-hold
vector 360 scenario.client0.tcp.conn-43 tcpRcvQueueBytes:vector ETV
attr interpolationmode sample-hold
vector 361 scenario.client0.tcp.conn-43 rcvAdv:vector ETV
attr interpolationmode sample-hold
vector 362 scenario.client0.tcp.conn-43 rcvWnd:vector ETV
attr interpolationmode sample-hold
vector 363 scenario.client0.tcp.conn-43 sndAck:vector ETV
attr interpolationmode sample-hold
vector 364 scenario.client3.tcp.conn-44 rcvAdv:vector ETV
attr interpolationmode sample-hold
vector 365 scenario.client3.tcp.conn-44 sndWnd:vector ETV
attr interpolationmode sample-hold
vector 366 scenario.client3.tcp.conn-44 tcpRcvQueueBytes:vector ETV
attr interpolationmode sample-hold
vector 367 scenario.client3.tcp.conn-44 rcvWnd:vector ETV
attr interpolationmode sample-hold
vector 368 scenario.client3.tcp.conn-44 sndAck:vector ETV
attr interpolationmode sample-hold
vector 369 scenario.client0.tcp.conn-43 rcvSeq:vector ETV
attr interpolationmode sample-hold
vector 370 scenario.client0.tcp.conn-43 rcvAck:vector ETV
attr interpolationmode sample-hold
vector 371 scenario.client0.tcp.conn-43 sndWnd:vector ETV
attr interpolationmode sample-hold
vector 372 scenario.client0.tcp.conn-43 unacked:vector ETV
attr interpolationmode sample-hold
vector 373 scenario.client3.tcp.conn-44 rcvSeq:vector ETV
attr interpolationmode sample-hold
vector 374 scenario.client3.tcp.conn-44 rcvAck:vector ETV
attr interpolationmode sample-hold
vector 375 scenario.client3.tcp.conn-44 unacked:vector ETV
attr interpolationmode sample-hold
vector 376 scenario.client3.tcp.conn-44 cwnd:vector ETV
attr interpolationmode sample-hold
vector 377 scenario.client3.tcp.conn-44 ssthresh:vector ETV
attr interpolationmode sample-hold
vector 378 scenario.client3.tcp.conn-44 dupAcks:vector ETV
attr interpolationmode sample-hold
vector 379 scenario.client0.tcp.conn-43 rtt:vector ETV
attr interpolationmode sample-hold
vector 380 scenario.client0.tcp.conn-43 srtt:vector ETV
attr interpolationmode sample-hold
vector 381 scenario.client0.tcp.conn-43 rttvar:vector ETV
attr interpolationmode sample-hold
vector 382 scenario.client0.tcp.conn-43 rto:vector ETV
attr interpolationmode sample-hold
vector 383 scenario.client0.tcp.conn-43 cwnd:vector ETV
attr interpolationmode sample-hold
vector 384 scenario.client0.tcp.conn-43 ssthresh:vector ETV
attr interpolationmode sample-hold
vector 385 scenario.client0.tcp.conn-43 dupAcks:vector ETV
attr interpolationmode sample-hold
vector 386 scenario.client2.tcp.conn-45 tcpRcvQueueBytes:vector ETV
attr interpolationmode sample-hold
vector 387 scenario.client2.tcp.conn-45 rcvAdv:vector ETV
attr interpolationmode sample-hold
vector 388 scenario.client2.tcp.conn-45 rcvWnd:vector ETV
attr interpolationmode sample-hold
vector 389 scenario.client2.tcp.conn-45 sndAck:vector ETV
attr interpolationmode sample-hold
vector 390 scenario.client4.tcp.conn-46 rcvAdv:vector ETV
attr interpolationmode sample-hold
vector 391 scenario.client4.tcp.conn-46 sndWnd:vector ETV
attr interpolationmode sample-hold
vector 392 scenario.client4.tcp.conn-46 tcpRcvQueueBytes:vector ETV
attr interpolationmode sample-hold
vector 393 scenario.client4.tcp.conn-46 rcvWnd:vector ETV
attr interpolationmode sample-hold
vector 394 scenario.client4.tcp.conn-46 sndAck:vector ETV
attr interpolationmode sample-hold
vector 395 scenario.client2.tcp.conn-45 rcvSeq:vector ETV
attr interpolationmode sample-hold
vector 396 scenario.client2.tcp.conn-45 rcvAck:vector ETV
attr interpolationmode sample-hold
vector 397 scenario.client2.tcp.conn-45 sndWnd:vector ETV
attr interpolationmode sample-hold
vector 398 scenario.client2.tcp.conn-45 unacked:vector ETV
attr interpolationmode sample-hold
vector 399 scenario.client4.tcp.conn-46 rcvSeq:vector ETV
attr interpolationmode sample-hold
vector 400 scenario.client4.tcp.conn-46 rcvAck:vector ETV
attr interpolationmode sample-hold
vector 401 scenario.client4.tcp.conn-46 unacked:vector ETV
attr interpolationmode sample-hold
vector 402 scenario.client4.tcp.conn-46 cwnd:vector ETV
attr interpolationmode sample-hold
vector 403 scenario.client4.tcp.conn-46 ssthresh:vector ETV
attr interpolationmode sample-hold
vector 404 scenario.client4.tcp.conn-46 dupAcks:vector ETV
attr interpolationmode sample-hold
vector 405 scenario.client2.tcp.conn-45 rtt:vector ETV
attr interpolationmode sample-hold
vector 406 scenario.client2.tcp.conn-45 srtt:vector ETV
attr interpolationmode sample-hold
vector 407 scenario.client2.tcp.conn-45 rttvar:vector ETV
attr interpolationmode sample-hold
vector 408 scenario.client2.tcp.conn-45 rto:vector ETV
attr interpolationmode sample-hold
vector 409 scenario.client2.tcp.conn-45 cwnd:vector ETV
attr interpolationmode sample-hold
vector 410 scenario.client2.tcp.conn-45 ssthresh:vector ETV
attr interpolationmode sample-hold
vector 411 scenario.client2.tcp.conn-45 dupAcks:vector ETV
attr interpolationmode sample-hold
vector 412 scenario.client1.tcp.conn-47 tcpRcvQueueBytes:vector ETV
attr interpolationmode sample-hold
vector 413 scenario.client1.tcp.conn-47 rcvAdv:vector ETV
attr interpolationmode sample-hold
vector 414 scenario.client1.tcp.conn-47 rcvWnd:vector ETV
attr interpolationmode sample-hold
vector 415 scenario.client1.tcp.conn-47 sndAck:vector ETV
attr interpolationmode sample-hold
vector 416 scenario.client3.tcp.conn-48 rcvAdv:vector ETV
attr interpolationmode sample-hold
vector 417 scenario.client3.tcp.conn-48 sndWnd:vector ETV
attr interpolationmode sample-hold
vector 418 scenario.client3.tcp.conn-48 tcpRcvQueueBytes:vector ETV
attr interpolationmode sample-hold
vector 419 scenario.client3.tcp.conn-48 rcvWnd:vector ETV
attr interpolationmode sample-hold
vector 420 scenario.client3.tcp.conn-48 sndAck:vector ETV
attr interpolationmode sample-hold
vector 421 scenario.client1.tcp.conn-47 rcvSeq:vector ETV
attr interpolationmode sample-hold
vector 422 scenario.client1.tcp.conn-47 rcvAck:vector ETV
attr interpolationmode sample-hold
vector 423 scenario.client1.tcp.conn-47 sndWnd:vector ETV
attr interpolationmode sample-hold
vector 424 scenario.client1.tcp.conn-47 unacked:vector ETV
attr interpolationmode sample-hold
vector 425 scenario.client3.tcp.conn-48 rcvSeq:vector ETV
attr interpolationmode sample-hold
vector 426 scenario.client3.tcp.conn-48 rcvAck:vector ETV
attr interpolationmode sample-hold
vector 427 scenario.client3.tcp.conn-48 unacked:vector ETV
attr interpolationmode sample-hold
vector 428 scenario.client3.tcp.conn-48 cwnd:vector ETV
attr interpolationmode sample-hold
vector 429 scenario.client3.tcp.conn-48 ssthresh:vector ETV
attr interpolationmode sample-hold
vector 430 scenario.client3.tcp.conn-48 dupAcks:vector ETV
attr interpolationmode sample-hold
vector 431 scenario.client1.tcp.conn-47 rtt:vector ETV
attr interpolationmode sample-hold
vector 432 scenario.client1.tcp.conn-47 srtt:vector ETV
attr interpolationmode sample-hold
vector 433 scenario.client1.tcp.conn-47 rttvar:vector ETV
attr interpolationmode sample-hold
vector 434 scenario.client1.tcp.conn-47 rto:vector ETV
attr interpolationmode sample-hold
vector 435 scenario.client1.tcp.conn-47 cwnd:vector ETV
attr interpolationmode sample-hold
vector 436 scenario.client1.tcp.conn-47 ssthresh:vector ETV
attr interpolationmode sample-hold
vector 437 scenario.client1.tcp.conn-47 dupAcks:vector ETV
attr interpolationmode sample-hold
vector 438 scenario.client1.tcp.conn-49 tcpRcvQueueBytes:vector ETV
attr interpolationmode sample-hold
vector 439 scenario.client1.tcp.conn-49 rcvAdv:vector ETV
attr interpolationmode sample-hold
vector 440 scenario.client1.tcp.conn-49 rcvWnd:vector ETV
attr interpolationmode sample-hold
vector 441 scenario.client1.tcp.conn-49 sndAck:vector ETV
attr interpolationmode sample-hold
vector 442 scenario.client1.ppp[0].ppp rcvdPkFromHl:vector(packetBytes) ETV
attr interpolationmode none
attr source packetReceivedFromUpper
attr title "packets received from higher layer, vector(packetBytes)"
vector 443 scenario.client1.ppp[0].ppp.queue packetPushed:vector(packetBytes) ETV
attr interpolationmode none
attr title "packet pushed, vector(packetBytes)"
vector 444 scenario.client1.ppp[0].ppp.queue queueLength:vector ETV
attr interpolationmode sample-hold
attr source "count(packetPushed) - count(packetPopped) - count(packetRemoved) - count(packetDropped)"
attr title "queue length, vector"
vector 445 scenario.client1.ppp[0].ppp.queue packetPopped:vector(packetBytes) ETV
attr interpolationmode none
attr title "packet popped, vector(packetBytes)"
vector 446 scenario.client1.ppp[0].ppp.queue queueingTime:vector ETV
attr interpolationmode none
attr source queueingTime(packetPopped)
attr title "queueing times, vector"
attr unit s
vector 447 scenario.client1.ppp[0].ppp txPk:vector(packetBytes) ETV
attr interpolationmode none
attr source packetSentToLower
attr title "packets transmitted, vector(packetBytes)"
vector 448 scenario.client0.ppp[0].ppp rxPkOk:vector(packetBytes) ETV
attr interpolationmode none
attr source rxPkOk
attr title "packets received OK, vector(packetBytes)"
vector 449 scenario.client0.ppp[0].ppp passedUpPk:vector(packetBytes) ETV
attr interpolationmode none
attr source packetSentToUpper
attr title "packets passed to higher layer, vector(packetBytes)"
vector 450 scenario.client0.tcp.conn-50 rcvAdv:vector ETV
attr interpolationmode sample-hold
vector 451 scenario.client0.tcp.conn-50 sndWnd:vector ETV
attr interpolationmode sample-hold
vector 452 scenario.client0.tcp.conn-50 tcpRcvQueueBytes:vector ETV
attr interpolationmode sample-hold
vector 453 scenario.client0.tcp.conn-50 rcvWnd:vector ETV
attr interpolationmode sample-hold
vector 454 scenario.client0.tcp.conn-50 sndAck:vector ETV
attr interpolationmode sample-hold
vector 455 scenario.client0.ppp[0].ppp rcvdPkFromHl:vector(packetBytes) ETV
attr interpolationmode none
attr source packetReceivedFromUpper
attr title "packets received from higher layer, vector(packetBytes)"
vector 456 scenario.client0.ppp[0].ppp.queue packetPushed:vector(packetBytes) ETV
attr interpolationmode none
attr title "packet pushed, vector(packetBytes)"
vector 457 scenario.client0.ppp[0].ppp.queue queueLength:vector ETV
attr interpolationmode sample-hold
attr source "count(packetPushed) - count(packetPopped) - count(packetRemoved) - count(packetDropped)"
attr title "queue length, vector"
vector 458 scenario.client0.ppp[0].ppp.queue packetPopped:vector(packetBytes) ETV
attr interpolationmode none
attr title "packet popped, vector(packetBytes)"
vector 459 scenario.client0.ppp[0].ppp.queue queueingTime:vector ETV
attr interpolationmode none
attr source queueingTime(packetPopped)
attr title "queueing times, vector"
attr unit s
vector 460 scenario.client0.ppp[0].ppp txPk:vector(packetBytes) ETV
attr interpolationmode none
attr source packetSentToLower
attr title "packets transmitted, vector(packetBytes)"
vector 461 scenario.client1.ppp[0].ppp rxPkOk:vector(packetBytes) ETV
attr interpolationmode none
attr source rxPkOk
attr title "packets received OK, vector(packetBytes)"
vector 462 scenario.client1.ppp[0].ppp passedUpPk:vector(packetBytes) ETV
attr interpolationmode none
attr source packetSentToUpper
attr title "packets passed to higher layer, vector(packetBytes)"
vector 463 scenario.client1.tcp.conn-49 rcvSeq:vector ETV
attr interpolationmode sample-hold
vector 464 scenario.client1.tcp.conn-49 rcvAck:vector ETV
attr interpolationmode sample-hold
vector 465 scenario.client1.tcp.conn-49 sndWnd:vector ETV
attr interpolationmode sample-hold
vector 466 scenario.client1.tcp.conn-49 unacked:vector ETV
attr interpolationmode sample-hold
vector 467 scenario.client0.tcp.conn-50 rcvSeq:vector ETV
attr interpolationmode sample-hold
vector 468 scenario.client0.tcp.conn-50 rcvAck:vector ETV
attr interpolationmode sample-hold
vector 469 scenario.client0.tcp.conn-50 unacked:vector ETV
attr interpolationmode sample-hold
vector 470 scenario.client0.tcp.conn-50 cwnd:vector ETV
attr interpolationmode sample-hold
vector 471 scenario.client0.tcp.conn-50 ssthresh:vector ETV
attr interpolationmode sample-hold
vector 472 scenario.client0.tcp.conn-50 dupAcks:vector ETV
attr interpolationmode sample-hold
vector 473 scenario.client1.tcp.conn-49 rtt:vector ETV
attr interpolationmode sample-hold
vector 474 scenario.client1.tcp.conn-49 srtt:vector ETV
attr interpolationmode sample-hold
vector 475 scenario.client1.tcp.conn-49 rttvar:vector ETV
attr interpolationmode sample-hold
vector 476 scenario.client1.tcp.conn-49 rto:vector ETV
attr interpolationmode sample-hold
vector 477 scenario.client1.tcp.conn-49 cwnd:vector ETV
attr interpolationmode sample-hold
vector 478 scenario.client1.tcp.conn-49 ssthresh:vector ETV
attr interpolationmode sample-hold
vector 479 scenario.client1.tcp.conn-49 dupAcks:vector ETV
attr interpolationmode sample-hold
vector 480 scenario.client2.tcp.conn-51 tcpRcvQueueBytes:vector ETV
attr interpolationmode sample-hold
vector 481 scenario.client2.tcp.conn-51 rcvAdv:vector ETV
attr interpolationmode sample-hold
vector 482 scenario.client2.tcp.conn-51 rcvWnd:vector ETV
attr interpolationmode sample-hold
vector 483 scenario.client2.tcp.conn-51 sndAck:vector ETV
attr interpolationmode sample-hold
vector 484 scenario.client2.ppp[1].ppp rcvdPkFromHl:vector(packetBytes) ETV
attr interpolationmode none
attr source packetReceivedFromUpper
attr title "packets received from higher layer, vector(packetBytes)"
vector 485 scenario.client2.ppp[1].ppp.queue packetPushed:vector(packetBytes) ETV
attr interpolationmode none
attr title "packet pushed, vector(packetBytes)"
vector 486 scenario.client2.ppp[1].ppp.queue queueLength:vector ETV
attr interpolationmode sample-hold
attr source "count(packetPushed) - count(packetPopped) - count(packetRemoved) - count(packetDropped)"
attr title "queue length, vector"
vector 487 scenario.client2.ppp[1].ppp.queue packetPopped:vector(packetBytes) ETV
attr interpolationmode none
attr title "packet popped, vector(packetBytes)"
vector 488 scenario.client2.ppp[1].ppp.queue queueingTime:vector ETV
attr interpolationmode none
attr source queueingTime(packetPopped)
attr title "queueing times, vector"
attr unit s
vector 489 scenario.client2.ppp[1].ppp txPk:vector(packetBytes) ETV
attr interpolationmode none
attr source packetSentToLower
attr title "packets transmitted, vector(packetBytes)"
vector 490 scenario.client1.ppp[1].ppp rxPkOk:vector(packetBytes) ETV
attr interpolationmode none
attr source rxPkOk
attr title "packets received OK, vector(packetBytes)"
vector 491 scenario.client1.ppp[1].ppp passedUpPk:vector(packetBytes) ETV
attr interpolationmode none
attr source packetSentToUpper
attr title "packets passed to higher layer, vector(packetBytes)"
vector 492 scenario.client1.tcp.conn-52 rcvAdv:vector ETV
attr interpolationmode sample-hold
vector 493 scenario.client1.tcp.conn-52 sndWnd:vector ETV
attr interpolationmode sample-hold
vector 494 scenario.client1.tcp.conn-52 tcpRcvQueueBytes:vector ETV
attr interpolationmode sample-hold
vector 495 scenario.client1.tcp.conn-52 rcvWnd:vector ETV
attr interpolationmode sample-hold
vector 496 scenario.client1.tcp.conn-52 sndAck:vector ETV
attr interpolationmode sample-hold
vector 497 scenario.client1.ppp[1].ppp rcvdPkFromHl:vector(packetBytes) ETV
attr interpolationmode none
attr source packetReceivedFromUpper
attr title "packets received from higher layer, vector(packetBytes)"
vector 498 scenario.client1.ppp[1].ppp.queue packetPushed:vector(packetBytes) ETV
attr interpolationmode none
attr title "packet pushed, vector(packetBytes)"
vector 499 scenario.client1.ppp[1].ppp.queue queueLength:vector ETV
attr interpolationmode sample-hold
attr source "count(packetPushed) - count(packetPopped) - count(packetRemoved) - count(packetDropped)"
attr title "queue length, vector"
vector 500 scenario.client1.ppp[1].ppp.queue packetPopped:vector(packetBytes) ETV
attr interpolationmode none
attr title "packet popped, vector(packetBytes)"
vector 501 scenario.client1.ppp[1].ppp.queue queueingTime:vector ETV
attr interpolationmode none
attr source queueingTime(packetPopped)
attr title "queueing times, vector"
attr unit s
vector 502 scenario.client1.ppp[1].ppp txPk:vector(packetBytes) ETV
attr interpolationmode none
attr source packetSentToLower
attr title "packets transmitted, vector(packetBytes)"
vector 503 scenario.client2.ppp[1].ppp rxPkOk:vector(packetBytes) ETV
attr interpolationmode none
attr source rxPkOk
attr title "packets received OK, vector(packetBytes)"
vector 504 scenario.client2.ppp[1].ppp passedUpPk:vector(packetBytes) ETV
attr interpolationmode none
attr source packetSentToUpper
attr title "packets passed to higher layer, vector(packetBytes)"
vector 505 scenario.client2.tcp.conn-51 rcvSeq:vector ETV
attr interpolationmode sample-hold
vector 506 scenario.client2.tcp.conn-51 rcvAck:vector ETV
attr interpolationmode sample-hold
vector 507 scenario.client2.tcp.conn-51 sndWnd:vector ETV
attr interpolationmode sample-hold
vector 508 scenario.client2.tcp.conn-51 unacked:vector ETV
attr interpolationmode sample-hold
vector 509 scenario.client1.tcp.conn-52 rcvSeq:vector ETV
attr interpolationmode sample-hold
vector 510 scenario.client1.tcp.conn-52 rcvAck:vector ETV
attr interpolationmode sample-hold
vector 511 scenario.client1.tcp.conn-52 unacked:vector ETV
attr interpolationmode sample-hold
vector 512 scenario.client1.tcp.conn-52 cwnd:vector ETV
attr interpolationmode sample-hold
vector 513 scenario.client1.tcp.conn-52 ssthresh:vector ETV
attr interpolationmode sample-hold
vector 514 scenario.client1.tcp.conn-52 dupAcks:vector ETV
attr interpolationmode sample-hold
vector 515 scenario.client2.tcp.conn-51 rtt:vector ETV
attr interpolationmode sample-hold
vector 516 scenario.client2.tcp.conn-51 srtt:vector ETV
attr interpolationmode sample-hold
vector 517 scenario.client2.tcp.conn-51 rttvar:vector ETV
attr interpolationmode sample-hold
vector 518 scenario.client2.tcp.conn-51 rto:vector ETV
attr interpolationmode sample-hold
vector 519 scenario.client2.tcp.conn-51 cwnd:vector ETV
attr interpolationmode sample-hold
vector 520 scenario.client2.tcp.conn-51 ssthresh:vector ETV
attr interpolationmode sample-hold
vector 521 scenario.client2.tcp.conn-51 dupAcks:vector ETV
attr interpolationmode sample-hold
vector 522 scenario.client0.tcp.conn-53 tcpRcvQueueBytes:vector ETV
attr interpolationmode sample-hold
vector 523 scenario.client0.tcp.conn-53 rcvAdv:vector ETV
attr interpolationmode sample-hold
vector 524 scenario.client0.tcp.conn-53 rcvWnd:vector ETV
attr interpolationmode sample-hold
vector 525 scenario.client0.tcp.conn-53 sndAck:vector ETV
attr interpolationmode sample-hold
vector 526 scenario.client0.ppp[1].ppp rcvdPkFromHl:vector(packetBytes) ETV
attr interpolationmode none
attr source packetReceivedFromUpper
attr title "packets received from higher layer, vector(packetBytes)"
vector 527 scenario.client0.ppp[1].ppp.queue packetPushed:vector(packetBytes) ETV
attr interpolationmode none
attr title "packet pushed, vector(packetBytes)"
vector 528 scenario.client0.ppp[1].ppp.queue queueLength:vector ETV
attr interpolationmode sample-hold
attr source "count(packetPushed) - count(packetPopped) - count(packetRemoved) - count(packetDropped)"
attr title "queue length, vector"
vector 529 scenario.client0.ppp[1].ppp.queue packetPopped:vector(packetBytes) ETV
attr interpolationmode none
attr title "packet popped, vector(packetBytes)"
vector 530 scenario.client0.ppp[1].ppp.queue queueingTime:vector ETV
attr interpolationmode none
attr source queueingTime(packetPopped)
attr title "queueing times, vector"
attr unit s
vector 531 scenario.client0.ppp[1].ppp txPk:vector(packetBytes) ETV
attr interpolationmode none
attr source packetSentToLower
attr title "packets transmitted, vector(packetBytes)"
vector 532 scenario.client2.ppp[0].ppp rxPkOk:vector(packetBytes) ETV
attr interpolationmode none
attr source rxPkOk
attr title "packets received OK, vector(packetBytes)"
vector 533 scenario.client2.ppp[0].ppp passedUpPk:vector(packetBytes) ETV
attr interpolationmode none
attr source packetSentToUpper
attr title "packets passed to higher layer, vector(packetBytes)"
vector 534 scenario.client2.tcp.conn-54 rcvAdv:vector ETV
attr interpolationmode sample-hold
vector 535 scenario.client2.tcp.conn-54 sndWnd:vector ETV
attr interpolationmode sample-hold
vector 536 scenario.client2.tcp.conn-54 tcpRcvQueueBytes:vector ETV
attr interpolationmode sample-hold
vector 537 scenario.client2.tcp.conn-54 rcvWnd:vector ETV
attr interpolationmode sample-hold
vector 538 scenario.client2.tcp.conn-54 sndAck:vector ETV
attr interpolationmode sample-hold
vector 539 scenario.client2.ppp[0].ppp rcvdPkFromHl:vector(packetBytes) ETV
attr interpolationmode none
attr source packetReceivedFromUpper
attr title "packets received from higher layer, vector(packetBytes)"
vector 540 scenario.client2.ppp[0].ppp.queue packetPushed:vector(packetBytes) ETV
attr interpolationmode none
attr title "packet pushed, vector(packetBytes)"
vector 541 scenario.client2.ppp[0].ppp.queue queueLength:vector ETV
attr interpolationmode sample-hold
attr source "count(packetPushed) - count(packetPopped) - count(packetRemoved) - count(packetDropped)"
attr title "queue length, vector"
vector 542 scenario.client2.ppp[0].ppp.queue packetPopped:vector(packetBytes) ETV
attr interpolationmode none
attr title "packet popped, vector(packetBytes)"
vector 543 scenario.client2.ppp[0].ppp.queue queueingTime:vector ETV
attr interpolationmode none
attr source queueingTime(packetPopped)
attr title "queueing times, vector"
attr unit s
vector 544 scenario.client2.ppp[0].ppp txPk:vector(packetBytes) ETV
attr interpolationmode none
attr source packetSentToLower
attr title "packets transmitted, vector(packetBytes)"
vector 545 scenario.client0.ppp[1].ppp rxPkOk:vector(packetBytes) ETV
attr interpolationmode none
attr source rxPkOk
attr title "packets received OK, vector(packetBytes)"
vector 546 scenario.client0.ppp[1].ppp passedUpPk:vector(packetBytes) ETV
attr interpolationmode none
attr source packetSentToUpper
attr title "packets passed to higher layer, vector(packetBytes)"
vector 547 scenario.client0.tcp.conn-53 rcvSeq:vector ETV
attr interpolationmode sample-hold
vector 548 scenario.client0.tcp.conn-53 rcvAck:vector ETV
attr interpolationmode sample-hold
vector 549 scenario.client0.tcp.conn-53 sndWnd:vector ETV
attr interpolationmode sample-hold
vector 550 scenario.client0.tcp.conn-53 unacked:vector ETV
attr interpolationmode sample-hold
vector 551 scenario.client2.tcp.conn-54 rcvSeq:vector ETV
attr interpolationmode sample-hold
vector 552 scenario.client2.tcp.conn-54 rcvAck:vector ETV
attr interpolationmode sample-hold
vector 553 scenario.client2.tcp.conn-54 unacked:vector ETV
attr interpolationmode sample-hold
vector 554 scenario.client2.tcp.conn-54 cwnd:vector ETV
attr interpolationmode sample-hold
vector 555 scenario.client2.tcp.conn-54 ssthresh:vector ETV
attr interpolationmode sample-hold
vector 556 scenario.client2.tcp.conn-54 dupAcks:vector ETV
attr interpolationmode sample-hold
vector 557 scenario.client0.tcp.conn-53 rtt:vector ETV
attr interpolationmode sample-hold
vector 558 scenario.client0.tcp.conn-53 srtt:vector ETV
attr interpolationmode sample-hold
vector 559 scenario.client0.tcp.conn-53 rttvar:vector ETV
attr interpolationmode sample-hold
vector 560 scenario.client0.tcp.conn-53 rto:vector ETV
attr interpolationmode sample-hold
vector 561 scenario.client0.tcp.conn-53 cwnd:vector ETV
attr interpolationmode sample-hold
vector 562 scenario.client0.tcp.conn-53 ssthresh:vector ETV
attr interpolationmode sample-hold
vector 563 scenario.client0.tcp.conn-53 dupAcks:vector ETV
attr interpolationmode sample-hold
vector 564 scenario.client0.tcp.conn-55 tcpRcvQueueBytes:vector ETV
attr interpolationmode sample-hold
vector 565 scenario.client0.tcp.conn-55 rcvAdv:vector ETV
attr interpolationmode sample-hold
vector 566 scenario.client0.tcp.conn-55 rcvWnd:vector ETV
attr interpolationmode sample-hold
vector 567 scenario.client0.tcp.conn-55 sndAck:vector ETV
attr interpolationmode sample-hold
vector 568 scenario.client1.tcp.conn-56 rcvAdv:vector ETV
attr interpolationmode sample-hold
vector 569 scenario.client1.tcp.conn-56 sndWnd:vector ETV
attr interpolationmode sample-hold
vector 570 scenario.client1.tcp.conn-56 tcpRcvQueueBytes:vector ETV
attr interpolationmode sample-hold
vector 571 scenario.client1.tcp.conn-56 rcvWnd:vector ETV
attr interpolationmode sample-hold
vector 572 scenario.client1.tcp.conn-56 sndAck:vector ETV
attr interpolationmode sample-hold
vector 573 scenario.client0.tcp.conn-55 rcvSeq:vector ETV
attr interpolationmode sample-hold
vector 574 scenario.client0.tcp.conn-55 rcvAck:vector ETV
attr interpolationmode sample-hold
vector 575 scenario.client0.tcp.conn-55 sndWnd:vector ETV
attr interpolationmode sample-hold
vector 576 scenario.client0.tcp.conn-55 unacked:vector ETV
attr interpolationmode sample-hold
vector 577 scenario.client1.tcp.conn-56 rcvSeq:vector ETV
attr interpolationmode sample-hold
vector 578 scenario.client1.tcp.conn-56 rcvAck:vector ETV
attr interpolationmode sample-hold
vector 579 scenario.client1.tcp.conn-56 unacked:vector ETV
attr interpolationmode sample-hold
vector 580 scenario.client1.tcp.conn-56 cwnd:vector ETV
attr interpolationmode sample-hold
vector 581 scenario.client1.tcp.conn-56 ssthresh:vector ETV
attr interpolationmode sample-hold
vector 582 scenario.client1.tcp.conn-56 dupAcks:vector ETV
attr interpolationmode sample-hold
vector 583 scenario.client0.tcp.conn-55 rtt:vector ETV
attr interpolationmode sample-hold
vector 584 scenario.client0.tcp.conn-55 srtt:vector ETV
attr interpolationmode sample-hold
vector 585 scenario.client0.tcp.conn-55 rttvar:vector ETV
attr interpolationmode sample-hold
vector 586 scenario.client0.tcp.conn-55 rto:vector ETV
attr interpolationmode sample-hold
vector 587 scenario.client0.tcp.conn-55 cwnd:vector ETV
attr interpolationmode sample-hold
vector 588 scenario.client0.tcp.conn-55 ssthresh:vector ETV
attr interpolationmode sample-hold
vector 589 scenario.client0.tcp.conn-55 dupAcks:vector ETV
attr interpolationmode sample-hold
vector 590 scenario.client1.tcp.conn-57 tcpRcvQueueBytes:vector ETV
attr interpolationmode sample-hold
vector 591 scenario.client1.tcp.conn-57 rcvAdv:vector ETV
attr interpolationmode sample-hold
vector 592 scenario.client1.tcp.conn-57 rcvWnd:vector ETV
attr interpolationmode sample-hold
vector 593 scenario.client1.tcp.conn-57 sndAck:vector ETV
attr interpolationmode sample-hold
vector 594 scenario.client2.tcp.conn-58 rcvAdv:vector ETV
attr interpolationmode sample-hold
vector 595 scenario.client2.tcp.conn-58 sndWnd:vector ETV
attr interpolationmode sample-hold
vector 596 scenario.client2.tcp.conn-58 tcpRcvQueueBytes:vector ETV
attr interpolationmode sample-hold
vector 597 scenario.client2.tcp.conn-58 rcvWnd:vector ETV
attr interpolationmode sample-hold
vector 598 scenario.client2.tcp.conn-58 sndAck:vector ETV
attr interpolationmode sample-hold
vector 599 scenario.client1.tcp.conn-57 rcvSeq:vector ETV
attr interpolationmode sample-hold
vector 600 scenario.client1.tcp.conn-57 rcvAck:vector ETV
attr interpolationmode sample-hold
vector 601 scenario.client1.tcp.conn-57 sndWnd:vector ETV
attr interpolationmode sample-hold
vector 602 scenario.client1.tcp.conn-57 unacked:vector ETV
attr interpolationmode sample-hold
vector 603 scenario.client2.tcp.conn-58 rcvSeq:vector ETV
attr interpolationmode sample-hold
vector 604 scenario.client2.tcp.conn-58 rcvAck:vector ETV
attr interpolationmode sample-hold
vector 605 scenario.client2.tcp.conn-58 unacked:vector ETV
attr interpolationmode sample-hold
vector 606 scenario.client2.tcp.conn-58 cwnd:vector ETV
attr interpolationmode sample-hold
vector 607 scenario.client2.tcp.conn-58 ssthresh:vector ETV
attr interpolationmode sample-hold
vector 608 scenario.client2.tcp.conn-58 dupAcks:vector ETV
attr interpolationmode sample-hold
vector 609 scenario.client1.tcp.conn-57 rtt:vector ETV
attr interpolationmode sample-hold
vector 610 scenario.client1.tcp.conn-57 srtt:vector ETV
attr interpolationmode sample-hold
vector 611 scenario.client1.tcp.conn-57 rttvar:vector ETV
attr interpolationmode sample-hold
vector 612 scenario.client1.tcp.conn-57 rto:vector ETV
attr interpolationmode sample-hold
vector 613 scenario.client1.tcp.conn-57 cwnd:vector ETV
attr interpolationmode sample-hold
vector 614 scenario.client1.tcp.conn-57 ssthresh:vector ETV
attr interpolationmode sample-hold
vector 615 scenario.client1.tcp.conn-57 dupAcks:vector ETV
attr interpolationmode sample-hold
vector 616 scenario.client2.tcp.conn-59 tcpRcvQueueBytes:vector ETV
attr interpolationmode sample-hold
vector 617 scenario.client2.tcp.conn-59 rcvAdv:vector ETV
attr interpolationmode sample-hold
vector 618 scenario.client2.tcp.conn-59 rcvWnd:vector ETV
attr interpolationmode sample-hold
vector 619 scenario.client2.tcp.conn-59 sndAck:vector ETV
attr interpolationmode sample-hold
vector 620 scenario.client0.tcp.conn-60 rcvAdv:vector ETV
attr interpolationmode sample-hold
vector 621 scenario.client0.tcp.conn-60 sndWnd:vector ETV
attr interpolationmode sample-hold
vector 622 scenario.client0.tcp.conn-60 tcpRcvQueueBytes:vector ETV
attr interpolationmode sample-hold
vector 623 scenario.client0.tcp.conn-60 rcvWnd:vector ETV
attr interpolationmode sample-hold
vector 624 scenario.client0.tcp.conn-60 sndAck:vector ETV
attr interpolationmode sample-hold
vector 625 scenario.client2.tcp.conn-59 rcvSeq:vector ETV
attr interpolationmode sample-hold
vector 626 scenario.client2.tcp.conn-59 rcvAck:vector ETV
attr interpolationmode sample-hold
vector 627 scenario.client2.tcp.conn-59 sndWnd:vector ETV
attr interpolationmode sample-hold
vector 628 scenario.client2.tcp.conn-59 unacked:vector ETV
attr interpolationmode sample-hold
vector 629 scenario.client0.tcp.conn-60 rcvSeq:vector ETV
attr interpolationmode sample-hold
vector 630 scenario.client0.tcp.conn-60 rcvAck:vector ETV
attr interpolationmode sample-hold
vector 631 scenario.client0.tcp.conn-60 unacked:vector ETV
attr interpolationmode sample-hold
vector 632 scenario.client0.tcp.conn-60 cwnd:vector ETV
attr interpolationmode sample-hold
vector 633 scenario.client0.tcp.conn-60 ssthresh:vector ETV
attr interpolationmode sample-hold
vector 634 scenario.client0.tcp.conn-60 dupAcks:vector ETV
attr interpolationmode sample-hold
vector 635 scenario.client2.tcp.conn-59 rtt:vector ETV
attr interpolationmode sample-hold
vector 636 scenario.client2.tcp.conn-59 srtt:vector ETV
attr interpolationmode sample-hold
vector 637 scenario.client2.tcp.conn-59 rttvar:vector ETV
attr interpolationmode sample-hold
vector 638 scenario.client2.tcp.conn-59 rto:vector ETV
attr interpolationmode sample-hold
vector 639 scenario.client2.tcp.conn-59 cwnd:vector ETV
attr interpolationmode sample-hold
vector 640 scenario.client2.tcp.conn-59 ssthresh:vector ETV
attr interpolationmode sample-hold
vector 641 scenario.client2.tcp.conn-59 dupAcks:vector ETV
attr interpolationmode sample-hold
0	78406 391 0 780 0 7.866939892453 17 0 1 8 8
1	78797 393 0 705 0 7.434797798273 17 0 1 8 8
2	79190 249 0 855 0 8.249916667867 11 0 1 5 5
3	79439 242 0 810 0 8.087954938078 11 0 1 5 5
4	79681 391 0 787 0 7.867815892453 17 0 1 8 8
5	80072 393 0 825 0 8.135868997955 17 0 1 8 8
6	80465 249 0 735 0 7.584887827875 11 0 1 5 5
7	80714 229 0 840 0 8.137516997467 11 0 1 5 5
8	80943 393 0 712 0 7.435673798273 17 0 1 8 8
9	81336 393 0 832 0 8.136744997955 17 0 1 8 8
10	81729 260 0 795 0 7.999237631032 11 0 1 5 5
11	81989 260 0 765 0 7.835536346202 11 0 1 5 5
12	82249 260 0 862 0 8.250792667867 11 0 1 5 5
13	82509 260 0 742 0 7.585763827875 11 0 1 5 5
14	82769 259 0 802 0 8.000113631032 11 0 1 5 5
15	83028 10 0 0 0 0 1 0 0 0 0
16	83038 254 0 817 0 8.088830938078 11 0 1 5 5
17	83292 240 0 847 0 8.138392997467 11 0 1 5 5
18	83532 260 0 772 0 7.836412346202 11 0 1 5 5
19	83792 10 0 0 0 0 1 0 0 0 0
20	83802 44 14 27 3.0244758446 3.0262918446 2 0 0 0 0
21	83846 79 14 27 3.0244758446 3.0262918446 3 7504 763850 1535204 1166989955016
22	83925 50 14 27 3.0244758446 3.0262918446 2 7504 7504 15008 112620032
23	83975 49 14 27 3.0244758446 3.0262918446 2 0 756346 756346 572059271716
24	84024 120 17 846 3.0244758446 8.138016997467 5 40 44 209 8753
25	84144 120 17 846 3.0244758446 8.138016997467 5 40 44 209 8753
26	84264 230 17 846 3.0244758446 8.138016997467 10 0 1 5 5
27	84494 120 17 846 3.0244758446 8.138016997467 5 40 44 209 8753
28	84614 115 17 846 3.0244758446 8.138016997467 5 0 0 0 0
29	84729 120 17 846 3.0244758446 8.138016997467 5 47 51 244 11924
30	84849 120 19 848 3.0253838446 8.138892997467 5 47 51 244 11924
31	84969 120 19 848 3.0253838446 8.138892997467 5 40 44 209 8753
32	85089 119 21 508 3.0253838446 6.460333641652 4 756118 1614856 4867280 6442248502120
33	85208 97 21 508 3.0253838446 6.460333641652 4 0 0 0 0
34	85305 81 21 34 3.0253838446 3.0271758446 3 763623 763623 2290869 1749360258387
35	85386 50 21 34 3.0253838446 3.0271758446 2 7504 7504 15008 112620032
36	85436 66 21 34 3.0253838446 3.0271758446 3 0 1 1 1
37	85502 50 21 34 3.0253838446 3.0271758446 2 7503 7504 15007 112605025
38	85552 54 21 34 3.0253838446 3.0271758446 2 756119 756120 1512239 1143433396561
39	85606 120 23 836 3.0253838446 8.137132997467 5 40 44 210 8834
40	85726 120 23 836 3.0253838446 8.137132997467 5 40 44 210 8834
41	85846 230 23 836 3.0253838446 8.137132997467 10 0 1 5 5
42	86076 120 23 836 3.0253838446 8.137132997467 5 40 44 210 8834
43	86196 115 23 836 3.0253838446 8.137132997467 5 0 0 0 0
44	86311 120 23 836 3.0253838446 8.137132997467 5 47 51 245 12019
45	86431 120 25 841 3.0262918446 8.138016997467 5 47 51 245 12019
46	86551 120 25 841 3.0262918446 8.138016997467 5 40 44 210 8834
47	86671 54 27 44 3.0262918446 3.0280518446 2 756345 756346 1512691 1144117030741
48	86725 54 27 44 3.0262918446 3.0280518446 2 756119 756120 1512239 1143433396561
49	86779 50 27 44 3.0262918446 3.0280518446 2 7503 7504 15007 112605025
50	86829 44 27 44 3.0262918446 3.0280518446 2 0 1 1 1
51	86873 27 34 34 3.0271758446 3.0271758446 1 756119 756119 756119 571715942161
52	86900 27 34 34 3.0271758446 3.0271758446 1 756346 756346 756346 572059271716
[...]
398	114832 104 347 775 4.113192412244 7.836912346202 4 0 1 2 2
399	114936 64 354 768 4.114076412244 7.836036346202 2 1027845 1027846 2055691 2112932743741
400	115000 64 354 768 4.114076412244 7.836036346202 2 1028072 1028072 2056144 2113864074368
401	115064 26 354 354 4.114076412244 4.114076412244 1 0 0 0 0
402	115090 29 354 354 4.114076412244 4.114076412244 1 1072 1072 1072 1149184
403	115119 35 354 354 4.114076412244 4.114076412244 1 4294967295 4294967295 4294967295 1.844674406512e+019
404	115154 52 354 768 4.114076412244 7.836036346202 2 0 0 0 0
405	115206 64 364 775 4.114952412244 7.836912346202 2 0.00176 0.00176 0.00352 6.1952e-006
406	115270 66 364 775 4.114952412244 7.836912346202 2 0.00022 0.0004125 0.0006325 2.1855625e-007
407	115336 67 364 775 4.114952412244 7.836912346202 2 0.57460375 0.65647 1.23107375 0.76112233041406
408	115403 65 364 775 4.114952412244 7.836912346202 2 2.2988275 2.6261 4.9249275 12.181009084756
409	115468 58 364 775 4.114952412244 7.836912346202 2 1072 1072 2144 2298368
410	115526 70 364 775 4.114952412244 7.836912346202 2 4294967295 4294967295 8589934590 3.6893488130239e+019
411	115596 52 364 775 4.114952412244 7.836912346202 2 0 0 0 0
412	115648 78 366 732 4.785316657003 7.584503827875 3 0 0 0 0
413	115726 125 366 732 4.785316657003 7.584503827875 4 7504 1204061 3619687 4349344985179
414	115851 87 366 732 4.785316657003 7.584503827875 3 7504 7504 22512 168930048
415	115938 90 366 732 4.785316657003 7.584503827875 3 0 1196557 2393114 2863497308498
416	116028 128 373 738 4.786224657003 7.585387827875 4 1203834 1203836 4815338 5796870013564
417	116156 58 373 386 4.786224657003 4.788016657003 2 7504 7504 15008 112620032
418	116214 130 373 738 4.786224657003 7.585387827875 5 0 1 1 1
419	116344 87 373 738 4.786224657003 7.585387827875 3 7503 7504 22511 168915041
420	116431 96 373 738 4.786224657003 7.585387827875 3 1196330 1196332 3588993 4293623584685
421	116527 96 379 745 4.787132657003 7.586263827875 3 1196556 1196557 3589670 4295243569634
422	116623 96 379 745 4.787132657003 7.586263827875 3 1196330 1196332 3588993 4293623584685
423	116719 87 379 745 4.787132657003 7.586263827875 3 7503 7504 22511 168915041
424	116806 104 379 745 4.787132657003 7.586263827875 4 0 1 2 2
425	116910 64 386 738 4.788016657003 7.585387827875 2 1196330 1196331 2392661 2862413330461
426	116974 64 386 738 4.788016657003 7.585387827875 2 1196557 1196557 2393114 2863497308498
427	117038 26 386 386 4.788016657003 4.788016657003 1 0 0 0 0
428	117064 29 386 386 4.788016657003 4.788016657003 1 1072 1072 1072 1149184
429	117093 35 386 386 4.788016657003 4.788016657003 1 4294967295 4294967295 4294967295 1.844674406512e+019
430	117128 52 386 738 4.788016657003 7.585387827875 2 0 0 0 0
431	117180 64 396 745 4.788892657003 7.586263827875 2 0.00176 0.00176 0.00352 6.1952e-006
432	117244 66 396 745 4.788892657003 7.586263827875 2 0.00022 0.0004125 0.0006325 2.1855625e-007
433	117310 67 396 745 4.788892657003 7.586263827875 2 0.57460375 0.65647 1.23107375 0.76112233041406
434	117377 65 396 745 4.788892657003 7.586263827875 2 2.2988275 2.6261 4.9249275 12.181009084756
435	117442 58 396 745 4.788892657003 7.586263827875 2 1072 1072 2144 2298368
436	117500 70 396 745 4.788892657003 7.586263827875 2 4294967295 4294967295 8589934590 3.6893488130239e+019
437	117570 52 396 745 4.788892657003 7.586263827875 2 0 0 0 0
438	117622 104 405 747 6.002136295663 7.830940791894 4 0 0 0 0
439	117726 157 405 747 6.002136295663 7.830940791894 5 7504 1508266 6040568 9099521617040
440	117883 116 405 747 6.002136295663 7.830940791894 4 7504 7504 30016 225240064
441	117999 122 405 747 6.002136295663 7.830940791894 4 0 1500762 4502286 6756859741932
442	118121 215 408 786 6.002136295663 7.867439892453 8 40 44 331 13715
443	118336 215 408 786 6.002136295663 7.867439892453 8 40 44 331 13715
444	118551 414 408 786 6.002136295663 7.867439892453 16 0 1 8 8
445	118965 215 408 786 6.002136295663 7.867439892453 8 40 44 331 13715
446	119180 207 408 786 6.002136295663 7.867439892453 8 0 0 0 0
447	119387 215 408 786 6.002136295663 7.867439892453 8 47 51 387 18741
448	119602 215 410 788 6.003044295663 7.868315892453 8 47 51 387 18741
449	119817 215 410 788 6.003044295663 7.868315892453 8 40 44 331 13715
450	120032 160 412 753 6.003044295663 7.831824791894 5 1508039 1508042 7540200 11370923208008
451	120192 58 412 425 6.003044295663 6.004836295663 2 7504 7504 15008 112620032
452	120250 182 412 753 6.003044295663 7.831824791894 7 0 1 1 1
453	120432 116 412 753 6.003044295663 7.831824791894 4 7503 7504 30015 225225057
454	120548 128 412 753 6.003044295663 7.831824791894 4 1500535 1500538 6002146 9006439151334
455	120676 215 414 779 6.003044295663 7.866555892453 8 40 44 331 13715
456	120891 215 414 779 6.003044295663 7.866555892453 8 40 44 331 13715
457	121106 414 414 779 6.003044295663 7.866555892453 16 0 1 8 8
458	121520 215 414 779 6.003044295663 7.866555892453 8 40 44 331 13715
459	121735 207 414 779 6.003044295663 7.866555892453 8 0 0 0 0
460	121942 215 414 779 6.003044295663 7.866555892453 8 47 51 387 18741
461	122157 215 416 781 6.003952295663 7.867439892453 8 47 51 387 18741
462	122372 215 416 781 6.003952295663 7.867439892453 8 40 44 331 13715
463	122587 128 418 760 6.003952295663 7.832700791894 4 1500761 1500762 6003047 9009143321053
464	122715 128 418 760 6.003952295663 7.832700791894 4 1500535 1500538 6002146 9006439151334
465	122843 116 418 760 6.003952295663 7.832700791894 4 7503 7504 30015 225225057
466	122959 156 418 760 6.003952295663 7.832700791894 6 0 1 3 3
467	123115 96 425 753 6.004836295663 7.831824791894 3 1500535 1500537 4501608 6754824861890
468	123211 96 425 753 6.004836295663 7.831824791894 3 1500762 1500762 4502286 6756859741932
469	123307 26 425 425 6.004836295663 6.004836295663 1 0 0 0 0
470	123333 29 425 425 6.004836295663 6.004836295663 1 1072 1072 1072 1149184
471	123362 35 425 425 6.004836295663 6.004836295663 1 4294967295 4294967295 4294967295 1.844674406512e+019
472	123397 78 425 753 6.004836295663 7.831824791894 3 0 0 0 0
473	123475 96 435 760 6.005712295663 7.832700791894 3 0.00176 0.00176 0.00528 9.2928e-006
474	123571 103 435 760 6.005712295663 7.832700791894 3 0.00022 0.0005809375 0.0012134375 5.5604462890625e-007
475	123674 105 435 760 6.005712295663 7.832700791894 3 0.50294671875 0.65647 1.73402046875 1.0140777323155
476	123779 102 435 760 6.005712295663 7.832700791894 3 2.0123678125 2.6261 6.9372953125 16.230633297542
477	123881 87 435 760 6.005712295663 7.832700791894 3 1072 2144 4824 8331584
478	123968 105 435 760 6.005712295663 7.832700791894 3 4294967295 4294967295 12884901885 5.5340232195359e+019
479	124073 78 435 760 6.005712295663 7.832700791894 3 0 0 0 0
480	124151 104 437 672 6.077059236427 7.209920679342 4 0 0 0 0
481	124255 157 437 672 6.077059236427 7.209920679342 5 7504 1526996 6115488 9326923446080
482	124412 116 437 672 6.077059236427 7.209920679342 4 7504 7504 30016 225240064
483	124528 122 437 672 6.077059236427 7.209920679342 4 0 1519492 4558476 6926567814192
484	124650 216 440 831 6.077059236427 8.136368997955 8 40 44 331 13715
485	124866 216 440 831 6.077059236427 8.136368997955 8 40 44 331 13715
486	125082 416 440 831 6.077059236427 8.136368997955 16 0 1 8 8
487	125498 216 440 831 6.077059236427 8.136368997955 8 40 44 331 13715
488	125714 208 440 831 6.077059236427 8.136368997955 8 0 0 0 0
489	125922 216 440 831 6.077059236427 8.136368997955 8 47 51 387 18741
490	126138 216 442 837 6.077967236427 8.137244997955 8 47 51 387 18741
491	126354 216 442 837 6.077967236427 8.137244997955 8 40 44 331 13715
492	126570 160 444 678 6.077967236427 7.210804679342 5 1526769 1526772 7633850 11655133164508
493	126730 58 444 457 6.077967236427 6.079759236427 2 7504 7504 15008 112620032
494	126788 182 444 678 6.077967236427 7.210804679342 7 0 1 1 1
495	126970 116 444 678 6.077967236427 7.210804679342 4 7503 7504 30015 225225057
496	127086 128 444 678 6.077967236427 7.210804679342 4 1519265 1519268 6077066 9232682792094
497	127214 216 446 824 6.077967236427 8.135484997955 8 40 44 331 13715
498	127430 216 446 824 6.077967236427 8.135484997955 8 40 44 331 13715
499	127646 416 446 824 6.077967236427 8.135484997955 16 0 1 8 8
500	128062 216 446 824 6.077967236427 8.135484997955 8 40 44 331 13715
501	128278 208 446 824 6.077967236427 8.135484997955 8 0 0 0 0
502	128486 216 446 824 6.077967236427 8.135484997955 8 47 51 387 18741
503	128702 216 448 826 6.078875236427 8.136368997955 8 47 51 387 18741
504	128918 216 448 826 6.078875236427 8.136368997955 8 40 44 331 13715
505	129134 128 450 685 6.078875236427 7.211680679342 4 1519491 1519492 6077967 9235420713273
506	129262 128 450 685 6.078875236427 7.211680679342 4 1519265 1519268 6077066 9232682792094
507	129390 116 450 685 6.078875236427 7.211680679342 4 7503 7504 30015 225225057
508	129506 156 450 685 6.078875236427 7.211680679342 6 0 1 3 3
509	129662 96 457 678 6.079759236427 7.210804679342 3 1519265 1519267 4557798 6924507536270
510	129758 96 457 678 6.079759236427 7.210804679342 3 1519492 1519492 4558476 6926567814192
511	129854 26 457 457 6.079759236427 6.079759236427 1 0 0 0 0
512	129880 29 457 457 6.079759236427 6.079759236427 1 1072 1072 1072 1149184
513	129909 35 457 457 6.079759236427 6.079759236427 1 4294967295 4294967295 4294967295 1.844674406512e+019
514	129944 78 457 678 6.079759236427 7.210804679342 3 0 0 0 0
515	130022 96 467 685 6.080635236427 7.211680679342 3 0.00176 0.00176 0.00528 9.2928e-006
516	130118 103 467 685 6.080635236427 7.211680679342 3 0.00022 0.0005809375 0.0012134375 5.5604462890625e-007
517	130221 105 467 685 6.080635236427 7.211680679342 3 0.50294671875 0.65647 1.73402046875 1.0140777323155
518	130326 102 467 685 6.080635236427 7.211680679342 3 2.0123678125 2.6261 6.9372953125 16.230633297542
519	130428 87 467 685 6.080635236427 7.211680679342 3 1072 2144 4824 8331584
520	130515 105 467 685 6.080635236427 7.211680679342 3 4294967295 4294967295 12884901885 5.5340232195359e+019
521	130620 78 467 685 6.080635236427 7.211680679342 3 0 0 0 0
522	130698 104 469 702 6.198187200537 7.434413798273 4 0 0 0 0
523	130802 157 469 702 6.198187200537 7.434413798273 5 7504 1557278 6236616 9700515387152
524	130959 116 469 702 6.198187200537 7.434413798273 4 7504 7504 30016 225240064
525	131075 122 469 702 6.198187200537 7.434413798273 4 0 1549774 4649322 7205398353228
526	131197 216 472 704 6.198187200537 7.434413798273 8 40 44 331 13715
527	131413 216 472 704 6.198187200537 7.434413798273 8 40 44 331 13715
528	131629 416 472 704 6.198187200537 7.434413798273 16 0 1 8 8
529	132045 216 472 704 6.198187200537 7.434413798273 8 40 44 331 13715
530	132261 208 472 704 6.198187200537 7.434413798273 8 0 0 0 0
531	132469 216 472 704 6.198187200537 7.434413798273 8 47 51 387 18741
532	132685 216 474 706 6.199095200537 7.435297798273 8 47 51 387 18741
533	132901 216 474 706 6.199095200537 7.435297798273 8 40 44 331 13715
534	133117 160 476 708 6.199095200537 7.435297798273 5 1557051 1557054 7785260 12122054653528
535	133277 58 476 489 6.199095200537 6.200887200537 2 7504 7504 15008 112620032
536	133335 182 476 708 6.199095200537 7.435297798273 7 0 1 1 1
537	133517 116 476 708 6.199095200537 7.435297798273 4 7503 7504 30015 225225057
538	133633 128 476 708 6.199095200537 7.435297798273 4 1549547 1549550 6198194 9604402215414
539	133761 216 478 711 6.199095200537 7.435297798273 8 40 44 331 13715
540	133977 216 478 711 6.199095200537 7.435297798273 8 40 44 331 13715
541	134193 416 478 711 6.199095200537 7.435297798273 16 0 1 8 8
542	134609 216 478 711 6.199095200537 7.435297798273 8 40 44 331 13715
543	134825 208 478 711 6.199095200537 7.435297798273 8 0 0 0 0
544	135033 216 478 711 6.199095200537 7.435297798273 8 47 51 387 18741
545	135249 216 480 713 6.200003200537 7.436173798273 8 47 51 387 18741
546	135465 216 480 713 6.200003200537 7.436173798273 8 40 44 331 13715
547	135681 128 482 715 6.200003200537 7.436173798273 4 1549773 1549774 6199095 9607194704757
548	135809 128 482 715 6.200003200537 7.436173798273 4 1549547 1549550 6198194 9604402215414
549	135937 116 482 715 6.200003200537 7.436173798273 4 7503 7504 30015 225225057
550	136053 156 482 715 6.200003200537 7.436173798273 6 0 1 3 3
551	136209 96 489 708 6.200887200537 7.435297798273 3 1549547 1549549 4648644 7203297012914
552	136305 96 489 708 6.200887200537 7.435297798273 3 1549774 1549774 4649322 7205398353228
553	136401 26 489 489 6.200887200537 6.200887200537 1 0 0 0 0
554	136427 29 489 489 6.200887200537 6.200887200537 1 1072 1072 1072 1149184
555	136456 35 489 489 6.200887200537 6.200887200537 1 4294967295 4294967295 4294967295 1.844674406512e+019
556	136491 78 489 708 6.200887200537 7.435297798273 3 0 0 0 0
557	136569 96 499 715 6.201763200537 7.436173798273 3 0.00176 0.00176 0.00528 9.2928e-006
558	136665 103 499 715 6.201763200537 7.436173798273 3 0.00022 0.0005809375 0.0012134375 5.5604462890625e-007
559	136768 105 499 715 6.201763200537 7.436173798273 3 0.50294671875 0.65647 1.73402046875 1.0140777323155
560	136873 102 499 715 6.201763200537 7.436173798273 3 2.0123678125 2.6261 6.9372953125 16.230633297542
561	136975 87 499 715 6.201763200537 7.436173798273 3 1072 2144 4824 8331584
562	137062 105 499 715 6.201763200537 7.436173798273 3 4294967295 4294967295 12884901885 5.5340232195359e+019
563	137167 78 499 715 6.201763200537 7.436173798273 3 0 0 0 0
564	137245 103 501 777 6.459425641652 7.866555892453 4 0 0 0 0
565	137348 156 501 777 6.459425641652 7.866555892453 5 7504 1622588 6497856 10531223580992
566	137504 115 501 777 6.459425641652 7.866555892453 4 7504 7504 30016 225240064
567	137619 121 501 777 6.459425641652 7.866555892453 4 0 1615084 4845252 7825488981168
568	137740 159 508 783 6.460333641652 7.867439892453 5 1622361 1622364 8111810 13160292295228
569	137899 58 508 521 6.460333641652 6.462125641652 2 7504 7504 15008 112620032
570	137957 180 508 783 6.460333641652 7.867439892453 7 0 1 1 1
571	138137 115 508 783 6.460333641652 7.867439892453 4 7503 7504 30015 225225057
572	138252 127 508 783 6.460333641652 7.867439892453 4 1614857 1614860 6459434 10431071900094
573	138379 127 514 790 6.461241641652 7.868315892453 4 1615083 1615084 6460335 10433982078057
574	138506 127 514 790 6.461241641652 7.868315892453 4 1614857 1614860 6459434 10431071900094
575	138633 115 514 790 6.461241641652 7.868315892453 4 7503 7504 30015 225225057
576	138748 154 514 790 6.461241641652 7.868315892453 6 0 1 3 3
577	138902 95 521 783 6.462125641652 7.867439892453 3 1614857 1614859 4844574 7823299080494
578	138997 95 521 783 6.462125641652 7.867439892453 3 1615084 1615084 4845252 7825488981168
579	139092 26 521 521 6.462125641652 6.462125641652 1 0 0 0 0
580	139118 29 521 521 6.462125641652 6.462125641652 1 1072 1072 1072 1149184
581	139147 35 521 521 6.462125641652 6.462125641652 1 4294967295 4294967295 4294967295 1.844674406512e+019
582	139182 77 521 783 6.462125641652 7.867439892453 3 0 0 0 0
583	139259 95 531 790 6.463001641652 7.868315892453 3 0.00176 0.00176 0.00528 9.2928e-006
584	139354 102 531 790 6.463001641652 7.868315892453 3 0.00022 0.0005809375 0.0012134375 5.5604462890625e-007
585	139456 104 531 790 6.463001641652 7.868315892453 3 0.50294671875 0.65647 1.73402046875 1.0140777323155
586	139560 101 531 790 6.463001641652 7.868315892453 3 2.0123678125 2.6261 6.9372953125 16.230633297542
587	139661 86 531 790 6.463001641652 7.868315892453 3 1072 2144 4824 8331584
588	139747 104 531 790 6.463001641652 7.868315892453 3 4294967295 4294967295 12884901885 5.5340232195359e+019
589	139851 77 531 790 6.463001641652 7.868315892453 3 0 0 0 0
590	139928 104 533 822 6.524979400006 8.135484997955 4 0 0 0 0
591	140032 157 533 822 6.524979400006 8.135484997955 5 7504 1638976 6563408 10745025624320
592	140189 116 533 822 6.524979400006 8.135484997955 4 7504 7504 30016 225240064
593	140305 122 533 822 6.524979400006 8.135484997955 4 0 1631472 4894416 7985102660352
594	140427 160 540 828 6.525887400006 8.136368997955 5 1638749 1638752 8193750 13427507812508
595	140587 58 540 553 6.525887400006 6.527679400006 2 7504 7504 15008 112620032
596	140645 182 540 828 6.525887400006 8.136368997955 7 0 1 1 1
597	140827 116 540 828 6.525887400006 8.136368997955 4 7503 7504 30015 225225057
598	140943 128 540 828 6.525887400006 8.136368997955 4 1631245 1631248 6524986 10643860575054
599	141071 128 546 839 6.526795400006 8.137244997955 4 1631471 1631472 6525887 10646800284193
600	141199 128 546 839 6.526795400006 8.137244997955 4 1631245 1631248 6524986 10643860575054
601	141327 116 546 839 6.526795400006 8.137244997955 4 7503 7504 30015 225225057
602	141443 156 546 839 6.526795400006 8.137244997955 6 0 1 3 3
603	141599 96 553 828 6.527679400006 8.136368997955 3 1631245 1631247 4893738 7982890537550
604	141695 96 553 828 6.527679400006 8.136368997955 3 1631472 1631472 4894416 7985102660352
605	141791 26 553 553 6.527679400006 6.527679400006 1 0 0 0 0
606	141817 29 553 553 6.527679400006 6.527679400006 1 1072 1072 1072 1149184
607	141846 35 553 553 6.527679400006 6.527679400006 1 4294967295 4294967295 4294967295 1.844674406512e+019
608	141881 78 553 828 6.527679400006 8.136368997955 3 0 0 0 0
609	141959 96 563 839 6.528555400006 8.137244997955 3 0.00176 0.00176 0.00528 9.2928e-006
610	142055 103 563 839 6.528555400006 8.137244997955 3 0.00022 0.0005809375 0.0012134375 5.5604462890625e-007
611	142158 105 563 839 6.528555400006 8.137244997955 3 0.50294671875 0.65647 1.73402046875 1.0140777323155
612	142263 102 563 839 6.528555400006 8.137244997955 3 2.0123678125 2.6261 6.9372953125 16.230633297542
613	142365 87 563 839 6.528555400006 8.137244997955 3 1072 2144 4824 8331584
614	142452 105 563 839 6.528555400006 8.137244997955 3 4294967295 4294967295 12884901885 5.5340232195359e+019
615	142557 78 563 839 6.528555400006 8.137244997955 3 0 0 0 0
616	142635 104 565 657 6.665608691671 7.172656542497 4 0 0 0 0
617	142739 157 565 657 6.665608691671 7.172656542497 5 7504 1674134 6704040 11210954909840
618	142896 116 565 657 6.665608691671 7.172656542497 4 7504 7504 30016 225240064
619	143012 122 565 657 6.665608691671 7.172656542497 4 0 1666630 4999890 8332966670700
620	143134 160 572 663 6.666516691671 7.173540542497 5 1673907 1673910 8369540 14009839962328
621	143294 58 572 585 6.666516691671 6.668308691671 2 7504 7504 15008 112620032
622	143352 182 572 663 6.666516691671 7.173540542497 7 0 1 1 1
623	143534 116 572 663 6.666516691671 7.173540542497 4 7503 7504 30015 225225057
624	143650 128 572 663 6.666516691671 7.173540542497 4 1666403 1666406 6665618 11107615830486
625	143778 128 578 670 6.667424691671 7.174416542497 4 1666629 1666630 6666519 11110618894341
626	143906 128 578 670 6.667424691671 7.174416542497 4 1666403 1666406 6665618 11107615830486
627	144034 116 578 670 6.667424691671 7.174416542497 4 7503 7504 30015 225225057
628	144150 156 578 670 6.667424691671 7.174416542497 6 0 1 3 3
629	144306 96 585 663 6.668308691671 7.173540542497 3 1666403 1666405 4999212 8330706873650
630	144402 96 585 663 6.668308691671 7.173540542497 3 1666630 1666630 4999890 8332966670700
631	144498 26 585 585 6.668308691671 6.668308691671 1 0 0 0 0
632	144524 29 585 585 6.668308691671 6.668308691671 1 1072 1072 1072 1149184
633	144553 35 585 585 6.668308691671 6.668308691671 1 4294967295 4294967295 4294967295 1.844674406512e+019
634	144588 78 585 663 6.668308691671 7.173540542497 3 0 0 0 0
635	144666 96 595 670 6.669184691671 7.174416542497 3 0.00176 0.00176 0.00528 9.2928e-006
636	144762 103 595 670 6.669184691671 7.174416542497 3 0.00022 0.0005809375 0.0012134375 5.5604462890625e-007
637	144865 105 595 670 6.669184691671 7.174416542497 3 0.50294671875 0.65647 1.73402046875 1.0140777323155
638	144970 102 595 670 6.669184691671 7.174416542497 3 2.0123678125 2.6261 6.9372953125 16.230633297542
639	145072 87 595 670 6.669184691671 7.174416542497 3 1072 2144 4824 8331584
640	145159 105 595 670 6.669184691671 7.174416542497 3 4294967295 4294967295 12884901885 5.5340232195359e+019
641	145264 78 595 670 6.669184691671 7.174416542497 3 0 0 0 0

