version 2
run J_34-0-20220106-12:04:50-5712
attr configname J_34
attr datetime 20220106-12:04:50
attr experiment J_34
attr inifile omnetpp.ini
attr iterationvars ""
attr iterationvarsf ""
attr measurement ""
attr network scenario
attr processid 5712
attr repetition 0
attr replication #0
attr resultdir results
attr runnumber 0
attr seedset 0
param **.client3.app[0].join 3.0
param **.client4.app[0].join 3.0
param **.ppp[*].ppp.queue.typename "\"DropTailQueue\""
param **.tcp.typename "\"Tcp\""
param **.tcp.nagleEnabled false
param **.cli*.app[*].nPar 5
param **.cli*.app[*].fPar 0
param **.numApps 1
param **.client0.app[*].typename "\"Node\""
param **.client0.app[0].localPort 1000
param **.client0.app[0].localPortL 1234
param **.client0.app[0].connectAddress "\"\""
param **.client0.app[0].connectPort 1234
param **.client1.app[*].typename "\"Node\""
param **.client1.app[0].localPort 1001
param **.client1.app[0].localPortL 1234
param **.client1.app[0].connectAddress "\"\""
param **.client1.app[0].connectPort 1234
param **.client2.app[*].typename "\"Node\""
param **.client2.app[0].localPort 1002
param **.client2.app[0].localPortL 1234
param **.client2.app[0].connectAddress "\"\""
param **.client2.app[0].connectPort 1234
param **.client3.app[*].typename "\"Node\""
param **.client3.app[0].localPort 1003
param **.client3.app[0].localPortL 1234
param **.client3.app[0].connectAddress "\"\""
param **.client3.app[0].connectPort 1234
param **.client4.app[*].typename "\"Node\""
param **.client4.app[0].localPort 1004
param **.client4.app[0].localPortL 1234
param **.client4.app[0].connectAddress "\"\""
param **.client4.app[0].connectPort 1234
param *.configurator.dumpAddresses true
param *.configurator.dumpTopology true
param *.configurator.dumpLinks true
param *.configurator.dumpRoutes true

vector 0 scenario.client0.ppp[0].ppp transmissionState:vector ETV
attr interpolationmode sample-hold
attr source transmissionStateChanged
attr title "tx state, vector"
vector 1 scenario.client0.ppp[1].ppp transmissionState:vector ETV
attr interpolationmode sample-hold
attr source transmissionStateChanged
attr title "tx state, vector"
vector 2 scenario.client0.ppp[2].ppp transmissionState:vector ETV
attr interpolationmode sample-hold
attr source transmissionStateChanged
attr title "tx state, vector"
vector 3 scenario.client0.ppp[3].ppp transmissionState:vector ETV
attr interpolationmode sample-hold
attr source transmissionStateChanged
attr title "tx state, vector"
vector 4 scenario.client1.ppp[0].ppp transmissionState:vector ETV
attr interpolationmode sample-hold
attr source transmissionStateChanged
attr title "tx state, vector"
vector 5 scenario.client1.ppp[1].ppp transmissionState:vector ETV
attr interpolationmode sample-hold
attr source transmissionStateChanged
attr title "tx state, vector"
vector 6 scenario.client1.ppp[2].ppp transmissionState:vector ETV
attr interpolationmode sample-hold
attr source transmissionStateChanged
attr title "tx state, vector"
vector 7 scenario.client1.ppp[3].ppp transmissionState:vector ETV
attr interpolationmode sample-hold
attr source transmissionStateChanged
attr title "tx state, vector"
vector 8 scenario.client2.ppp[0].ppp transmissionState:vector ETV
attr interpolationmode sample-hold
attr source transmissionStateChanged
attr title "tx state, vector"
vector 9 scenario.client2.ppp[1].ppp transmissionState:vector ETV
attr interpolationmode sample-hold
attr source transmissionStateChanged
attr title "tx state, vector"
vector 10 scenario.client2.ppp[2].ppp transmissionState:vector ETV
attr interpolationmode sample-hold
attr source transmissionStateChanged
attr title "tx state, vector"
vector 11 scenario.client2.ppp[3].ppp transmissionState:vector ETV
attr interpolationmode sample-hold
attr source transmissionStateChanged
attr title "tx state, vector"
vector 12 scenario.client3.ppp[0].ppp transmissionState:vector ETV
attr interpolationmode sample-hold
attr source transmissionStateChanged
attr title "tx state, vector"
vector 13 scenario.client3.ppp[1].ppp transmissionState:vector ETV
attr interpolationmode sample-hold
attr source transmissionStateChanged
attr title "tx state, vector"
vector 14 scenario.client3.ppp[2].ppp transmissionState:vector ETV
attr interpolationmode sample-hold
attr source transmissionStateChanged
attr title "tx state, vector"
vector 15 scenario.client3.ppp[3].ppp transmissionState:vector ETV
attr interpolationmode sample-hold
attr source transmissionStateChanged
attr title "tx state, vector"
vector 16 scenario.client4.ppp[0].ppp transmissionState:vector ETV
attr interpolationmode sample-hold
attr source transmissionStateChanged
attr title "tx state, vector"
vector 17 scenario.client4.ppp[1].ppp transmissionState:vector ETV
attr interpolationmode sample-hold
attr source transmissionStateChanged
attr title "tx state, vector"
vector 18 scenario.client4.ppp[2].ppp transmissionState:vector ETV
attr interpolationmode sample-hold
attr source transmissionStateChanged
attr title "tx state, vector"
vector 19 scenario.client4.ppp[3].ppp transmissionState:vector ETV
attr interpolationmode sample-hold
attr source transmissionStateChanged
attr title "tx state, vector"
vector 20 scenario.client3.tcp.conn-25 tcpRcvQueueBytes:vector ETV
attr interpolationmode sample-hold
vector 21 scenario.client3.tcp.conn-25 rcvAdv:vector ETV
attr interpolationmode sample-hold
vector 22 scenario.client3.tcp.conn-25 rcvWnd:vector ETV
attr interpolationmode sample-hold
vector 23 scenario.client3.tcp.conn-25 sndAck:vector ETV
attr interpolationmode sample-hold
vector 24 scenario.client3.ppp[2].ppp rcvdPkFromHl:vector(packetBytes) ETV
attr interpolationmode none
attr source packetReceivedFromUpper
attr title "packets received from higher layer, vector(packetBytes)"
vector 25 scenario.client3.ppp[2].ppp.queue packetPushed:vector(packetBytes) ETV
attr interpolationmode none
attr title "packet pushed, vector(packetBytes)"
vector 26 scenario.client3.ppp[2].ppp.queue queueLength:vector ETV
attr interpolationmode sample-hold
attr source "count(packetPushed) - count(packetPopped) - count(packetRemoved) - count(packetDropped)"
attr title "queue length, vector"
vector 27 scenario.client3.ppp[2].ppp.queue packetPopped:vector(packetBytes) ETV
attr interpolationmode none
attr title "packet popped, vector(packetBytes)"
vector 28 scenario.client3.ppp[2].ppp.queue queueingTime:vector ETV
attr interpolationmode none
attr source queueingTime(packetPopped)
attr title "queueing times, vector"
attr unit s
vector 29 scenario.client3.ppp[2].ppp txPk:vector(packetBytes) ETV
attr interpolationmode none
attr source packetSentToLower
attr title "packets transmitted, vector(packetBytes)"
vector 30 scenario.client2.ppp[2].ppp rxPkOk:vector(packetBytes) ETV
attr interpolationmode none
attr source rxPkOk
attr title "packets received OK, vector(packetBytes)"
vector 31 scenario.client2.ppp[2].ppp passedUpPk:vector(packetBytes) ETV
attr interpolationmode none
attr source packetSentToUpper
attr title "packets passed to higher layer, vector(packetBytes)"
vector 32 scenario.client2.tcp.conn-2 rcvSeq:vector ETV
attr interpolationmode sample-hold
vector 33 scenario.client2.tcp.conn-2 rcvAck:vector ETV
attr interpolationmode sample-hold
vector 34 scenario.client2.tcp.conn-26 rcvAdv:vector ETV
attr interpolationmode sample-hold
vector 35 scenario.client2.tcp.conn-26 sndWnd:vector ETV
attr interpolationmode sample-hold
vector 36 scenario.client2.tcp.conn-26 tcpRcvQueueBytes:vector ETV
attr interpolationmode sample-hold
vector 37 scenario.client2.tcp.conn-26 rcvWnd:vector ETV
attr interpolationmode sample-hold
vector 38 scenario.client2.tcp.conn-26 sndAck:vector ETV
attr interpolationmode sample-hold
vector 39 scenario.client2.ppp[2].ppp rcvdPkFromHl:vector(packetBytes) ETV
attr interpolationmode none
attr source packetReceivedFromUpper
attr title "packets received from higher layer, vector(packetBytes)"
vector 40 scenario.client2.ppp[2].ppp.queue packetPushed:vector(packetBytes) ETV
attr interpolationmode none
attr title "packet pushed, vector(packetBytes)"
vector 41 scenario.client2.ppp[2].ppp.queue queueLength:vector ETV
attr interpolationmode sample-hold
attr source "count(packetPushed) - count(packetPopped) - count(packetRemoved) - count(packetDropped)"
attr title "queue length, vector"
vector 42 scenario.client2.ppp[2].ppp.queue packetPopped:vector(packetBytes) ETV
attr interpolationmode none
attr title "packet popped, vector(packetBytes)"
vector 43 scenario.client2.ppp[2].ppp.queue queueingTime:vector ETV
attr interpolationmode none
attr source queueingTime(packetPopped)
attr title "queueing times, vector"
attr unit s
vector 44 scenario.client2.ppp[2].ppp txPk:vector(packetBytes) ETV
attr interpolationmode none
attr source packetSentToLower
attr title "packets transmitted, vector(packetBytes)"
vector 45 scenario.client3.ppp[2].ppp rxPkOk:vector(packetBytes) ETV
attr interpolationmode none
attr source rxPkOk
attr title "packets received OK, vector(packetBytes)"
vector 46 scenario.client3.ppp[2].ppp passedUpPk:vector(packetBytes) ETV
attr interpolationmode none
attr source packetSentToUpper
attr title "packets passed to higher layer, vector(packetBytes)"
vector 47 scenario.client3.tcp.conn-25 rcvSeq:vector ETV
attr interpolationmode sample-hold
vector 48 scenario.client3.tcp.conn-25 rcvAck:vector ETV
attr interpolationmode sample-hold
vector 49 scenario.client3.tcp.conn-25 sndWnd:vector ETV
attr interpolationmode sample-hold
vector 50 scenario.client3.tcp.conn-25 unacked:vector ETV
attr interpolationmode sample-hold
vector 51 scenario.client2.tcp.conn-26 rcvSeq:vector ETV
attr interpolationmode sample-hold
vector 52 scenario.client2.tcp.conn-26 rcvAck:vector ETV
attr interpolationmode sample-hold
vector 53 scenario.client2.tcp.conn-26 unacked:vector ETV
attr interpolationmode sample-hold
vector 54 scenario.client2.tcp.conn-26 cwnd:vector ETV
attr interpolationmode sample-hold
vector 55 scenario.client2.tcp.conn-26 ssthresh:vector ETV
attr interpolationmode sample-hold
vector 56 scenario.client2.tcp.conn-26 dupAcks:vector ETV
attr interpolationmode sample-hold
vector 57 scenario.client3.tcp.conn-25 rtt:vector ETV
attr interpolationmode sample-hold
vector 58 scenario.client3.tcp.conn-25 srtt:vector ETV
attr interpolationmode sample-hold
vector 59 scenario.client3.tcp.conn-25 rttvar:vector ETV
attr interpolationmode sample-hold
vector 60 scenario.client3.tcp.conn-25 rto:vector ETV
attr interpolationmode sample-hold
vector 61 scenario.client3.tcp.conn-25 cwnd:vector ETV
attr interpolationmode sample-hold
vector 62 scenario.client3.tcp.conn-25 ssthresh:vector ETV
attr interpolationmode sample-hold
vector 63 scenario.client3.tcp.conn-25 dupAcks:vector ETV
attr interpolationmode sample-hold
vector 64 scenario.client4.tcp.conn-27 tcpRcvQueueBytes:vector ETV
attr interpolationmode sample-hold
vector 65 scenario.client4.tcp.conn-27 rcvAdv:vector ETV
attr interpolationmode sample-hold
vector 66 scenario.client4.tcp.conn-27 rcvWnd:vector ETV
attr interpolationmode sample-hold
vector 67 scenario.client4.tcp.conn-27 sndAck:vector ETV
attr interpolationmode sample-hold
vector 68 scenario.client4.ppp[0].ppp rcvdPkFromHl:vector(packetBytes) ETV
attr interpolationmode none
attr source packetReceivedFromUpper
attr title "packets received from higher layer, vector(packetBytes)"
vector 69 scenario.client4.ppp[0].ppp.queue packetPushed:vector(packetBytes) ETV
attr interpolationmode none
attr title "packet pushed, vector(packetBytes)"
vector 70 scenario.client4.ppp[0].ppp.queue queueLength:vector ETV
attr interpolationmode sample-hold
attr source "count(packetPushed) - count(packetPopped) - count(packetRemoved) - count(packetDropped)"
attr title "queue length, vector"
vector 71 scenario.client4.ppp[0].ppp.queue packetPopped:vector(packetBytes) ETV
attr interpolationmode none
attr title "packet popped, vector(packetBytes)"
vector 72 scenario.client4.ppp[0].ppp.queue queueingTime:vector ETV
attr interpolationmode none
attr source queueingTime(packetPopped)
attr title "queueing times, vector"
attr unit s
vector 73 scenario.client4.ppp[0].ppp txPk:vector(packetBytes) ETV
attr interpolationmode none
attr source packetSentToLower
attr title "packets transmitted, vector(packetBytes)"
vector 74 scenario.client0.ppp[3].ppp rxPkOk:vector(packetBytes) ETV
attr interpolationmode none
attr source rxPkOk
attr title "packets received OK, vector(packetBytes)"
vector 75 scenario.client0.ppp[3].ppp passedUpPk:vector(packetBytes) ETV
attr interpolationmode none
attr source packetSentToUpper
attr title "packets passed to higher layer, vector(packetBytes)"
vector 76 scenario.client0.tcp.conn-0 rcvSeq:vector ETV
attr interpolationmode sample-hold
vector 77 scenario.client0.tcp.conn-0 rcvAck:vector ETV
attr interpolationmode sample-hold
vector 78 scenario.client0.tcp.conn-28 rcvAdv:vector ETV
attr interpolationmode sample-hold
vector 79 scenario.client0.tcp.conn-28 sndWnd:vector ETV
attr interpolationmode sample-hold
vector 80 scenario.client0.tcp.conn-28 tcpRcvQueueBytes:vector ETV
attr interpolationmode sample-hold
vector 81 scenario.client0.tcp.conn-28 rcvWnd:vector ETV
attr interpolationmode sample-hold
vector 82 scenario.client0.tcp.conn-28 sndAck:vector ETV
attr interpolationmode sample-hold
vector 83 scenario.client0.ppp[3].ppp rcvdPkFromHl:vector(packetBytes) ETV
attr interpolationmode none
attr source packetReceivedFromUpper
attr title "packets received from higher layer, vector(packetBytes)"
vector 84 scenario.client0.ppp[3].ppp.queue packetPushed:vector(packetBytes) ETV
attr interpolationmode none
attr title "packet pushed, vector(packetBytes)"
vector 85 scenario.client0.ppp[3].ppp.queue queueLength:vector ETV
attr interpolationmode sample-hold
attr source "count(packetPushed) - count(packetPopped) - count(packetRemoved) - count(packetDropped)"
attr title "queue length, vector"
vector 86 scenario.client0.ppp[3].ppp.queue packetPopped:vector(packetBytes) ETV
attr interpolationmode none
attr title "packet popped, vector(packetBytes)"
vector 87 scenario.client0.ppp[3].ppp.queue queueingTime:vector ETV
attr interpolationmode none
attr source queueingTime(packetPopped)
attr title "queueing times, vector"
attr unit s
vector 88 scenario.client0.ppp[3].ppp txPk:vector(packetBytes) ETV
attr interpolationmode none
attr source packetSentToLower
attr title "packets transmitted, vector(packetBytes)"
vector 89 scenario.client4.ppp[0].ppp rxPkOk:vector(packetBytes) ETV
attr interpolationmode none
attr source rxPkOk
attr title "packets received OK, vector(packetBytes)"
vector 90 scenario.client4.ppp[0].ppp passedUpPk:vector(packetBytes) ETV
attr interpolationmode none
attr source packetSentToUpper
attr title "packets passed to higher layer, vector(packetBytes)"
vector 91 scenario.client4.tcp.conn-27 rcvSeq:vector ETV
attr interpolationmode sample-hold
vector 92 scenario.client4.tcp.conn-27 rcvAck:vector ETV
attr interpolationmode sample-hold
vector 93 scenario.client4.tcp.conn-27 sndWnd:vector ETV
attr interpolationmode sample-hold
vector 94 scenario.client4.tcp.conn-27 unacked:vector ETV
attr interpolationmode sample-hold
vector 95 scenario.client0.tcp.conn-28 rcvSeq:vector ETV
attr interpolationmode sample-hold
vector 96 scenario.client0.tcp.conn-28 rcvAck:vector ETV
attr interpolationmode sample-hold
vector 97 scenario.client0.tcp.conn-28 unacked:vector ETV
attr interpolationmode sample-hold
vector 98 scenario.client0.tcp.conn-28 cwnd:vector ETV
attr interpolationmode sample-hold
vector 99 scenario.client0.tcp.conn-28 ssthresh:vector ETV
attr interpolationmode sample-hold
vector 100 scenario.client0.tcp.conn-28 dupAcks:vector ETV
attr interpolationmode sample-hold
vector 101 scenario.client4.tcp.conn-27 rtt:vector ETV
attr interpolationmode sample-hold
vector 102 scenario.client4.tcp.conn-27 srtt:vector ETV
attr interpolationmode sample-hold
vector 103 scenario.client4.tcp.conn-27 rttvar:vector ETV
attr interpolationmode sample-hold
vector 104 scenario.client4.tcp.conn-27 rto:vector ETV
attr interpolationmode sample-hold
vector 105 scenario.client4.tcp.conn-27 cwnd:vector ETV
attr interpolationmode sample-hold
vector 106 scenario.client4.tcp.conn-27 ssthresh:vector ETV
attr interpolationmode sample-hold
vector 107 scenario.client4.tcp.conn-27 dupAcks:vector ETV
attr interpolationmode sample-hold
vector 108 scenario.client0.tcp.conn-29 tcpRcvQueueBytes:vector ETV
attr interpolationmode sample-hold
vector 109 scenario.client0.tcp.conn-29 rcvAdv:vector ETV
attr interpolationmode sample-hold
vector 110 scenario.client0.tcp.conn-29 rcvWnd:vector ETV
attr interpolationmode sample-hold
vector 111 scenario.client0.tcp.conn-29 sndAck:vector ETV
attr interpolationmode sample-hold
vector 112 scenario.client4.tcp.conn-4 rcvSeq:vector ETV
attr interpolationmode sample-hold
vector 113 scenario.client4.tcp.conn-4 rcvAck:vector ETV
attr interpolationmode sample-hold
vector 114 scenario.client4.tcp.conn-30 rcvAdv:vector ETV
attr interpolationmode sample-hold
vector 115 scenario.client4.tcp.conn-30 sndWnd:vector ETV
attr interpolationmode sample-hold
vector 116 scenario.client4.tcp.conn-30 tcpRcvQueueBytes:vector ETV
attr interpolationmode sample-hold
vector 117 scenario.client4.tcp.conn-30 rcvWnd:vector ETV
attr interpolationmode sample-hold
vector 118 scenario.client4.tcp.conn-30 sndAck:vector ETV
attr interpolationmode sample-hold
vector 119 scenario.client0.tcp.conn-29 rcvSeq:vector ETV
attr interpolationmode sample-hold
vector 120 scenario.client0.tcp.conn-29 rcvAck:vector ETV
attr interpolationmode sample-hold
vector 121 scenario.client0.tcp.conn-29 sndWnd:vector ETV
attr interpolationmode sample-hold
vector 122 scenario.client0.tcp.conn-29 unacked:vector ETV
attr interpolationmode sample-hold
vector 123 scenario.client4.tcp.conn-30 rcvSeq:vector ETV
attr interpolationmode sample-hold
vector 124 scenario.client4.tcp.conn-30 rcvAck:vector ETV
attr interpolationmode sample-hold
vector 125 scenario.client4.tcp.conn-30 unacked:vector ETV
attr interpolationmode sample-hold
vector 126 scenario.client4.tcp.conn-30 cwnd:vector ETV
attr interpolationmode sample-hold
vector 127 scenario.client4.tcp.conn-30 ssthresh:vector ETV
attr interpolationmode sample-hold
vector 128 scenario.client4.tcp.conn-30 dupAcks:vector ETV
attr interpolationmode sample-hold
vector 129 scenario.client0.tcp.conn-29 rtt:vector ETV
attr interpolationmode sample-hold
vector 130 scenario.client0.tcp.conn-29 srtt:vector ETV
attr interpolationmode sample-hold
vector 131 scenario.client0.tcp.conn-29 rttvar:vector ETV
attr interpolationmode sample-hold
vector 132 scenario.client0.tcp.conn-29 rto:vector ETV
attr interpolationmode sample-hold
vector 133 scenario.client0.tcp.conn-29 cwnd:vector ETV
attr interpolationmode sample-hold
vector 134 scenario.client0.tcp.conn-29 ssthresh:vector ETV
attr interpolationmode sample-hold
vector 135 scenario.client0.tcp.conn-29 dupAcks:vector ETV
attr interpolationmode sample-hold
vector 136 scenario.client3.tcp.conn-31 tcpRcvQueueBytes:vector ETV
attr interpolationmode sample-hold
vector 137 scenario.client3.tcp.conn-31 rcvAdv:vector ETV
attr interpolationmode sample-hold
vector 138 scenario.client3.tcp.conn-31 rcvWnd:vector ETV
attr interpolationmode sample-hold
vector 139 scenario.client3.tcp.conn-31 sndAck:vector ETV
attr interpolationmode sample-hold
vector 140 scenario.client3.ppp[1].ppp rcvdPkFromHl:vector(packetBytes) ETV
attr interpolationmode none
attr source packetReceivedFromUpper
attr title "packets received from higher layer, vector(packetBytes)"
vector 141 scenario.client3.ppp[1].ppp.queue packetPushed:vector(packetBytes) ETV
attr interpolationmode none
attr title "packet pushed, vector(packetBytes)"
vector 142 scenario.client3.ppp[1].ppp.queue queueLength:vector ETV
attr interpolationmode sample-hold
attr source "count(packetPushed) - count(packetPopped) - count(packetRemoved) - count(packetDropped)"
attr title "queue length, vector"
vector 143 scenario.client3.ppp[1].ppp.queue packetPopped:vector(packetBytes) ETV
attr interpolationmode none
attr title "packet popped, vector(packetBytes)"
vector 144 scenario.client3.ppp[1].ppp.queue queueingTime:vector ETV
attr interpolationmode none
attr source queueingTime(packetPopped)
attr title "queueing times, vector"
attr unit s
vector 145 scenario.client3.ppp[1].ppp txPk:vector(packetBytes) ETV
attr interpolationmode none
attr source packetSentToLower
attr title "packets transmitted, vector(packetBytes)"
vector 146 scenario.client1.ppp[2].ppp rxPkOk:vector(packetBytes) ETV
attr interpolationmode none
attr source rxPkOk
attr title "packets received OK, vector(packetBytes)"
vector 147 scenario.client1.ppp[2].ppp passedUpPk:vector(packetBytes) ETV
attr interpolationmode none
attr source packetSentToUpper
attr title "packets passed to higher layer, vector(packetBytes)"
vector 148 scenario.client1.tcp.conn-1 rcvSeq:vector ETV
attr interpolationmode sample-hold
vector 149 scenario.client1.tcp.conn-1 rcvAck:vector ETV
attr interpolationmode sample-hold
vector 150 scenario.client1.tcp.conn-32 rcvAdv:vector ETV
attr interpolationmode sample-hold
vector 151 scenario.client1.tcp.conn-32 sndWnd:vector ETV
attr interpolationmode sample-hold
vector 152 scenario.client1.tcp.conn-32 tcpRcvQueueBytes:vector ETV
attr interpolationmode sample-hold
vector 153 scenario.client1.tcp.conn-32 rcvWnd:vector ETV
attr interpolationmode sample-hold
vector 154 scenario.client1.tcp.conn-32 sndAck:vector ETV
attr interpolationmode sample-hold
vector 155 scenario.client1.ppp[2].ppp rcvdPkFromHl:vector(packetBytes) ETV
attr interpolationmode none
attr source packetReceivedFromUpper
attr title "packets received from higher layer, vector(packetBytes)"
vector 156 scenario.client1.ppp[2].ppp.queue packetPushed:vector(packetBytes) ETV
attr interpolationmode none
attr title "packet pushed, vector(packetBytes)"
vector 157 scenario.client1.ppp[2].ppp.queue queueLength:vector ETV
attr interpolationmode sample-hold
attr source "count(packetPushed) - count(packetPopped) - count(packetRemoved) - count(packetDropped)"
attr title "queue length, vector"
vector 158 scenario.client1.ppp[2].ppp.queue packetPopped:vector(packetBytes) ETV
attr interpolationmode none
attr title "packet popped, vector(packetBytes)"
vector 159 scenario.client1.ppp[2].ppp.queue queueingTime:vector ETV
attr interpolationmode none
attr source queueingTime(packetPopped)
attr title "queueing times, vector"
attr unit s
vector 160 scenario.client1.ppp[2].ppp txPk:vector(packetBytes) ETV
attr interpolationmode none
attr source packetSentToLower
attr title "packets transmitted, vector(packetBytes)"
vector 161 scenario.client3.ppp[1].ppp rxPkOk:vector(packetBytes) ETV
attr interpolationmode none
attr source rxPkOk
attr title "packets received OK, vector(packetBytes)"
vector 162 scenario.client3.ppp[1].ppp passedUpPk:vector(packetBytes) ETV
attr interpolationmode none
attr source packetSentToUpper
attr title "packets passed to higher layer, vector(packetBytes)"
vector 163 scenario.client3.tcp.conn-31 rcvSeq:vector ETV
attr interpolationmode sample-hold
vector 164 scenario.client3.tcp.conn-31 rcvAck:vector ETV
attr interpolationmode sample-hold
vector 165 scenario.client3.tcp.conn-31 sndWnd:vector ETV
attr interpolationmode sample-hold
vector 166 scenario.client3.tcp.conn-31 unacked:vector ETV
attr interpolationmode sample-hold
vector 167 scenario.client1.tcp.conn-32 rcvSeq:vector ETV
attr interpolationmode sample-hold
vector 168 scenario.client1.tcp.conn-32 rcvAck:vector ETV
attr interpolationmode sample-hold
vector 169 scenario.client1.tcp.conn-32 unacked:vector ETV
attr interpolationmode sample-hold
vector 170 scenario.client1.tcp.conn-32 cwnd:vector ETV
attr interpolationmode sample-hold
vector 171 scenario.client1.tcp.conn-32 ssthresh:vector ETV
attr interpolationmode sample-hold
vector 172 scenario.client1.tcp.conn-32 dupAcks:vector ETV
attr interpolationmode sample-hold
vector 173 scenario.client3.tcp.conn-31 rtt:vector ETV
attr interpolationmode sample-hold
vector 174 scenario.client3.tcp.conn-31 srtt:vector ETV
attr interpolationmode sample-hold
vector 175 scenario.client3.tcp.conn-31 rttvar:vector ETV
attr interpolationmode sample-hold
vector 176 scenario.client3.tcp.conn-31 rto:vector ETV
attr interpolationmode sample-hold
vector 177 scenario.client3.tcp.conn-31 cwnd:vector ETV
attr interpolationmode sample-hold
vector 178 scenario.client3.tcp.conn-31 ssthresh:vector ETV
attr interpolationmode sample-hold
vector 179 scenario.client3.tcp.conn-31 dupAcks:vector ETV
attr interpolationmode sample-hold
vector 180 scenario.client1.tcp.conn-33 tcpRcvQueueBytes:vector ETV
attr interpolationmode sample-hold
vector 181 scenario.client1.tcp.conn-33 rcvAdv:vector ETV
attr interpolationmode sample-hold
vector 182 scenario.client1.tcp.conn-33 rcvWnd:vector ETV
attr interpolationmode sample-hold
vector 183 scenario.client1.tcp.conn-33 sndAck:vector ETV
attr interpolationmode sample-hold
vector 184 scenario.client3.tcp.conn-3 rcvSeq:vector ETV
attr interpolationmode sample-hold
vector 185 scenario.client3.tcp.conn-3 rcvAck:vector ETV
attr interpolationmode sample-hold
vector 186 scenario.client3.tcp.conn-34 rcvAdv:vector ETV
attr interpolationmode sample-hold
vector 187 scenario.client3.tcp.conn-34 sndWnd:vector ETV
attr interpolationmode sample-hold
vector 188 scenario.client3.tcp.conn-34 tcpRcvQueueBytes:vector ETV
attr interpolationmode sample-hold
vector 189 scenario.client3.tcp.conn-34 rcvWnd:vector ETV
attr interpolationmode sample-hold
vector 190 scenario.client3.tcp.conn-34 sndAck:vector ETV
attr interpolationmode sample-hold
vector 191 scenario.client1.tcp.conn-33 rcvSeq:vector ETV
attr interpolationmode sample-hold
vector 192 scenario.client1.tcp.conn-33 rcvAck:vector ETV
attr interpolationmode sample-hold
vector 193 scenario.client1.tcp.conn-33 sndWnd:vector ETV
attr interpolationmode sample-hold
vector 194 scenario.client1.tcp.conn-33 unacked:vector ETV
attr interpolationmode sample-hold
vector 195 scenario.client3.tcp.conn-34 rcvSeq:vector ETV
attr interpolationmode sample-hold
vector 196 scenario.client3.tcp.conn-34 rcvAck:vector ETV
attr interpolationmode sample-hold
vector 197 scenario.client3.tcp.conn-34 unacked:vector ETV
attr interpolationmode sample-hold
vector 198 scenario.client3.tcp.conn-34 cwnd:vector ETV
attr interpolationmode sample-hold
vector 199 scenario.client3.tcp.conn-34 ssthresh:vector ETV
attr interpolationmode sample-hold
vector 200 scenario.client3.tcp.conn-34 dupAcks:vector ETV
attr interpolationmode sample-hold
vector 201 scenario.client1.tcp.conn-33 rtt:vector ETV
attr interpolationmode sample-hold
vector 202 scenario.client1.tcp.conn-33 srtt:vector ETV
attr interpolationmode sample-hold
vector 203 scenario.client1.tcp.conn-33 rttvar:vector ETV
attr interpolationmode sample-hold
vector 204 scenario.client1.tcp.conn-33 rto:vector ETV
attr interpolationmode sample-hold
vector 205 scenario.client1.tcp.conn-33 cwnd:vector ETV
attr interpolationmode sample-hold
vector 206 scenario.client1.tcp.conn-33 ssthresh:vector ETV
attr interpolationmode sample-hold
vector 207 scenario.client1.tcp.conn-33 dupAcks:vector ETV
attr interpolationmode sample-hold
vector 208 scenario.client3.tcp.conn-35 tcpRcvQueueBytes:vector ETV
attr interpolationmode sample-hold
vector 209 scenario.client3.tcp.conn-35 rcvAdv:vector ETV
attr interpolationmode sample-hold
vector 210 scenario.client3.tcp.conn-35 rcvWnd:vector ETV
attr interpolationmode sample-hold
vector 211 scenario.client3.tcp.conn-35 sndAck:vector ETV
attr interpolationmode sample-hold
vector 212 scenario.client3.ppp[0].ppp rcvdPkFromHl:vector(packetBytes) ETV
attr interpolationmode none
attr source packetReceivedFromUpper
attr title "packets received from higher layer, vector(packetBytes)"
vector 213 scenario.client3.ppp[0].ppp.queue packetPushed:vector(packetBytes) ETV
attr interpolationmode none
attr title "packet pushed, vector(packetBytes)"
vector 214 scenario.client3.ppp[0].ppp.queue queueLength:vector ETV
attr interpolationmode sample-hold
attr source "count(packetPushed) - count(packetPopped) - count(packetRemoved) - count(packetDropped)"
attr title "queue length, vector"
vector 215 scenario.client3.ppp[0].ppp.queue packetPopped:vector(packetBytes) ETV
attr interpolationmode none
attr title "packet popped, vector(packetBytes)"
vector 216 scenario.client3.ppp[0].ppp.queue queueingTime:vector ETV
attr interpolationmode none
attr source queueingTime(packetPopped)
attr title "queueing times, vector"
attr unit s
vector 217 scenario.client3.ppp[0].ppp txPk:vector(packetBytes) ETV
attr interpolationmode none
attr source packetSentToLower
attr title "packets transmitted, vector(packetBytes)"
vector 218 scenario.client0.ppp[2].ppp rxPkOk:vector(packetBytes) ETV
attr interpolationmode none
attr source rxPkOk
attr title "packets received OK, vector(packetBytes)"
vector 219 scenario.client0.ppp[2].ppp passedUpPk:vector(packetBytes) ETV
attr interpolationmode none
attr source packetSentToUpper
attr title "packets passed to higher layer, vector(packetBytes)"
vector 220 scenario.client0.tcp.conn-36 rcvAdv:vector ETV
attr interpolationmode sample-hold
vector 221 scenario.client0.tcp.conn-36 sndWnd:vector ETV
attr interpolationmode sample-hold
vector 222 scenario.client0.tcp.conn-36 tcpRcvQueueBytes:vector ETV
attr interpolationmode sample-hold
vector 223 scenario.client0.tcp.conn-36 rcvWnd:vector ETV
attr interpolationmode sample-hold
vector 224 scenario.client0.tcp.conn-36 sndAck:vector ETV
attr interpolationmode sample-hold
vector 225 scenario.client0.ppp[2].ppp rcvdPkFromHl:vector(packetBytes) ETV
attr interpolationmode none
attr source packetReceivedFromUpper
attr title "packets received from higher layer, vector(packetBytes)"
vector 226 scenario.client0.ppp[2].ppp.queue packetPushed:vector(packetBytes) ETV
attr interpolationmode none
attr title "packet pushed, vector(packetBytes)"
vector 227 scenario.client0.ppp[2].ppp.queue queueLength:vector ETV
attr interpolationmode sample-hold
attr source "count(packetPushed) - count(packetPopped) - count(packetRemoved) - count(packetDropped)"
attr title "queue length, vector"
vector 228 scenario.client0.ppp[2].ppp.queue packetPopped:vector(packetBytes) ETV
attr interpolationmode none
attr title "packet popped, vector(packetBytes)"
vector 229 scenario.client0.ppp[2].ppp.queue queueingTime:vector ETV
attr interpolationmode none
attr source queueingTime(packetPopped)
attr title "queueing times, vector"
attr unit s
vector 230 scenario.client0.ppp[2].ppp txPk:vector(packetBytes) ETV
attr interpolationmode none
attr source packetSentToLower
attr title "packets transmitted, vector(packetBytes)"
vector 231 scenario.client3.ppp[0].ppp rxPkOk:vector(packetBytes) ETV
attr interpolationmode none
attr source rxPkOk
attr title "packets received OK, vector(packetBytes)"
vector 232 scenario.client3.ppp[0].ppp passedUpPk:vector(packetBytes) ETV
attr interpolationmode none
attr source packetSentToUpper
attr title "packets passed to higher layer, vector(packetBytes)"
vector 233 scenario.client3.tcp.conn-35 rcvSeq:vector ETV
attr interpolationmode sample-hold
vector 234 scenario.client3.tcp.conn-35 rcvAck:vector ETV
attr interpolationmode sample-hold
vector 235 scenario.client3.tcp.conn-35 sndWnd:vector ETV
attr interpolationmode sample-hold
vector 236 scenario.client3.tcp.conn-35 unacked:vector ETV
attr interpolationmode sample-hold
vector 237 scenario.client0.tcp.conn-36 rcvSeq:vector ETV
attr interpolationmode sample-hold
vector 238 scenario.client0.tcp.conn-36 rcvAck:vector ETV
attr interpolationmode sample-hold
vector 239 scenario.client0.tcp.conn-36 unacked:vector ETV
attr interpolationmode sample-hold
vector 240 scenario.client0.tcp.conn-36 cwnd:vector ETV
attr interpolationmode sample-hold
vector 241 scenario.client0.tcp.conn-36 ssthresh:vector ETV
attr interpolationmode sample-hold
vector 242 scenario.client0.tcp.conn-36 dupAcks:vector ETV
attr interpolationmode sample-hold
vector 243 scenario.client3.tcp.conn-35 rtt:vector ETV
attr interpolationmode sample-hold
vector 244 scenario.client3.tcp.conn-35 srtt:vector ETV
attr interpolationmode sample-hold
vector 245 scenario.client3.tcp.conn-35 rttvar:vector ETV
attr interpolationmode sample-hold
vector 246 scenario.client3.tcp.conn-35 rto:vector ETV
attr interpolationmode sample-hold
vector 247 scenario.client3.tcp.conn-35 cwnd:vector ETV
attr interpolationmode sample-hold
vector 248 scenario.client3.tcp.conn-35 ssthresh:vector ETV
attr interpolationmode sample-hold
vector 249 scenario.client3.tcp.conn-35 dupAcks:vector ETV
attr interpolationmode sample-hold
vector 250 scenario.client4.tcp.conn-37 tcpRcvQueueBytes:vector ETV
attr interpolationmode sample-hold
vector 251 scenario.client4.tcp.conn-37 rcvAdv:vector ETV
attr interpolationmode sample-hold
vector 252 scenario.client4.tcp.conn-37 rcvWnd:vector ETV
attr interpolationmode sample-hold
vector 253 scenario.client4.tcp.conn-37 sndAck:vector ETV
attr interpolationmode sample-hold
vector 254 scenario.client4.ppp[1].ppp rcvdPkFromHl:vector(packetBytes) ETV
attr interpolationmode none
attr source packetReceivedFromUpper
attr title "packets received from higher layer, vector(packetBytes)"
vector 255 scenario.client4.ppp[1].ppp.queue packetPushed:vector(packetBytes) ETV
attr interpolationmode none
attr title "packet pushed, vector(packetBytes)"
vector 256 scenario.client4.ppp[1].ppp.queue queueLength:vector ETV
attr interpolationmode sample-hold
attr source "count(packetPushed) - count(packetPopped) - count(packetRemoved) - count(packetDropped)"
attr title "queue length, vector"
vector 257 scenario.client4.ppp[1].ppp.queue packetPopped:vector(packetBytes) ETV
attr interpolationmode none
attr title "packet popped, vector(packetBytes)"
vector 258 scenario.client4.ppp[1].ppp.queue queueingTime:vector ETV
attr interpolationmode none
attr source queueingTime(packetPopped)
attr title "queueing times, vector"
attr unit s
vector 259 scenario.client4.ppp[1].ppp txPk:vector(packetBytes) ETV
attr interpolationmode none
attr source packetSentToLower
attr title "packets transmitted, vector(packetBytes)"
vector 260 scenario.client1.ppp[3].ppp rxPkOk:vector(packetBytes) ETV
attr interpolationmode none
attr source rxPkOk
attr title "packets received OK, vector(packetBytes)"
vector 261 scenario.client1.ppp[3].ppp passedUpPk:vector(packetBytes) ETV
attr interpolationmode none
attr source packetSentToUpper
attr title "packets passed to higher layer, vector(packetBytes)"
vector 262 scenario.client1.tcp.conn-38 rcvAdv:vector ETV
attr interpolationmode sample-hold
vector 263 scenario.client1.tcp.conn-38 sndWnd:vector ETV
attr interpolationmode sample-hold
vector 264 scenario.client1.tcp.conn-38 tcpRcvQueueBytes:vector ETV
attr interpolationmode sample-hold
vector 265 scenario.client1.tcp.conn-38 rcvWnd:vector ETV
attr interpolationmode sample-hold
vector 266 scenario.client1.tcp.conn-38 sndAck:vector ETV
attr interpolationmode sample-hold
vector 267 scenario.client1.ppp[3].ppp rcvdPkFromHl:vector(packetBytes) ETV
attr interpolationmode none
attr source packetReceivedFromUpper
attr title "packets received from higher layer, vector(packetBytes)"
vector 268 scenario.client1.ppp[3].ppp.queue packetPushed:vector(packetBytes) ETV
attr interpolationmode none
attr title "packet pushed, vector(packetBytes)"
vector 269 scenario.client1.ppp[3].ppp.queue queueLength:vector ETV
attr interpolationmode sample-hold
attr source "count(packetPushed) - count(packetPopped) - count(packetRemoved) - count(packetDropped)"
attr title "queue length, vector"
vector 270 scenario.client1.ppp[3].ppp.queue packetPopped:vector(packetBytes) ETV
attr interpolationmode none
attr title "packet popped, vector(packetBytes)"
vector 271 scenario.client1.ppp[3].ppp.queue queueingTime:vector ETV
attr interpolationmode none
attr source queueingTime(packetPopped)
attr title "queueing times, vector"
attr unit s
vector 272 scenario.client1.ppp[3].ppp txPk:vector(packetBytes) ETV
attr interpolationmode none
attr source packetSentToLower
attr title "packets transmitted, vector(packetBytes)"
vector 273 scenario.client4.ppp[1].ppp rxPkOk:vector(packetBytes) ETV
attr interpolationmode none
attr source rxPkOk
attr title "packets received OK, vector(packetBytes)"
vector 274 scenario.client4.ppp[1].ppp passedUpPk:vector(packetBytes) ETV
attr interpolationmode none
attr source packetSentToUpper
attr title "packets passed to higher layer, vector(packetBytes)"
vector 275 scenario.client4.tcp.conn-37 rcvSeq:vector ETV
attr interpolationmode sample-hold
vector 276 scenario.client4.tcp.conn-37 rcvAck:vector ETV
attr interpolationmode sample-hold
vector 277 scenario.client4.tcp.conn-37 sndWnd:vector ETV
attr interpolationmode sample-hold
vector 278 scenario.client4.tcp.conn-37 unacked:vector ETV
attr interpolationmode sample-hold
vector 279 scenario.client1.tcp.conn-38 rcvSeq:vector ETV
attr interpolationmode sample-hold
vector 280 scenario.client1.tcp.conn-38 rcvAck:vector ETV
attr interpolationmode sample-hold
vector 281 scenario.client1.tcp.conn-38 unacked:vector ETV
attr interpolationmode sample-hold
vector 282 scenario.client1.tcp.conn-38 cwnd:vector ETV
attr interpolationmode sample-hold
vector 283 scenario.client1.tcp.conn-38 ssthresh:vector ETV
attr interpolationmode sample-hold
vector 284 scenario.client1.tcp.conn-38 dupAcks:vector ETV
attr interpolationmode sample-hold
vector 285 scenario.client4.tcp.conn-37 rtt:vector ETV
attr interpolationmode sample-hold
vector 286 scenario.client4.tcp.conn-37 srtt:vector ETV
attr interpolationmode sample-hold
vector 287 scenario.client4.tcp.conn-37 rttvar:vector ETV
attr interpolationmode sample-hold
vector 288 scenario.client4.tcp.conn-37 rto:vector ETV
attr interpolationmode sample-hold
vector 289 scenario.client4.tcp.conn-37 cwnd:vector ETV
attr interpolationmode sample-hold
vector 290 scenario.client4.tcp.conn-37 ssthresh:vector ETV
attr interpolationmode sample-hold
vector 291 scenario.client4.tcp.conn-37 dupAcks:vector ETV
attr interpolationmode sample-hold
vector 292 scenario.client0.tcp.conn-39 tcpRcvQueueBytes:vector ETV
attr interpolationmode sample-hold
vector 293 scenario.client0.tcp.conn-39 rcvAdv:vector ETV
attr interpolationmode sample-hold
vector 294 scenario.client0.tcp.conn-39 rcvWnd:vector ETV
attr interpolationmode sample-hold
vector 295 scenario.client0.tcp.conn-39 sndAck:vector ETV
attr interpolationmode sample-hold
vector 296 scenario.client3.tcp.conn-40 rcvAdv:vector ETV
attr interpolationmode sample-hold
vector 297 scenario.client3.tcp.conn-40 sndWnd:vector ETV
attr interpolationmode sample-hold
vector 298 scenario.client3.tcp.conn-40 tcpRcvQueueBytes:vector ETV
attr interpolationmode sample-hold
vector 299 scenario.client3.tcp.conn-40 rcvWnd:vector ETV
attr interpolationmode sample-hold
vector 300 scenario.client3.tcp.conn-40 sndAck:vector ETV
attr interpolationmode sample-hold
vector 301 scenario.client0.tcp.conn-39 rcvSeq:vector ETV
attr interpolationmode sample-hold
vector 302 scenario.client0.tcp.conn-39 rcvAck:vector ETV
attr interpolationmode sample-hold
vector 303 scenario.client0.tcp.conn-39 sndWnd:vector ETV
attr interpolationmode sample-hold
vector 304 scenario.client0.tcp.conn-39 unacked:vector ETV
attr interpolationmode sample-hold
vector 305 scenario.client3.tcp.conn-40 rcvSeq:vector ETV
attr interpolationmode sample-hold
vector 306 scenario.client3.tcp.conn-40 rcvAck:vector ETV
attr interpolationmode sample-hold
vector 307 scenario.client3.tcp.conn-40 unacked:vector ETV
attr interpolationmode sample-hold
vector 308 scenario.client3.tcp.conn-40 cwnd:vector ETV
attr interpolationmode sample-hold
vector 309 scenario.client3.tcp.conn-40 ssthresh:vector ETV
attr interpolationmode sample-hold
vector 310 scenario.client3.tcp.conn-40 dupAcks:vector ETV
attr interpolationmode sample-hold
vector 311 scenario.client0.tcp.conn-39 rtt:vector ETV
attr interpolationmode sample-hold
vector 312 scenario.client0.tcp.conn-39 srtt:vector ETV
attr interpolationmode sample-hold
vector 313 scenario.client0.tcp.conn-39 rttvar:vector ETV
attr interpolationmode sample-hold
vector 314 scenario.client0.tcp.conn-39 rto:vector ETV
attr interpolationmode sample-hold
vector 315 scenario.client0.tcp.conn-39 cwnd:vector ETV
attr interpolationmode sample-hold
vector 316 scenario.client0.tcp.conn-39 ssthresh:vector ETV
attr interpolationmode sample-hold
vector 317 scenario.client0.tcp.conn-39 dupAcks:vector ETV
attr interpolationmode sample-hold
vector 318 scenario.client2.tcp.conn-41 tcpRcvQueueBytes:vector ETV
attr interpolationmode sample-hold
vector 319 scenario.client2.tcp.conn-41 rcvAdv:vector ETV
attr interpolationmode sample-hold
vector 320 scenario.client2.tcp.conn-41 rcvWnd:vector ETV
attr interpolationmode sample-hold
vector 321 scenario.client2.tcp.conn-41 sndAck:vector ETV
attr interpolationmode sample-hold
vector 322 scenario.client3.tcp.conn-42 rcvAdv:vector ETV
attr interpolationmode sample-hold
vector 323 scenario.client3.tcp.conn-42 sndWnd:vector ETV
attr interpolationmode sample-hold
vector 324 scenario.client3.tcp.conn-42 tcpRcvQueueBytes:vector ETV
attr interpolationmode sample-hold
vector 325 scenario.client3.tcp.conn-42 rcvWnd:vector ETV
attr interpolationmode sample-hold
vector 326 scenario.client3.tcp.conn-42 sndAck:vector ETV
attr interpolationmode sample-hold
vector 327 scenario.client2.tcp.conn-41 rcvSeq:vector ETV
attr interpolationmode sample-hold
vector 328 scenario.client2.tcp.conn-41 rcvAck:vector ETV
attr interpolationmode sample-hold
vector 329 scenario.client2.tcp.conn-41 sndWnd:vector ETV
attr interpolationmode sample-hold
vector 330 scenario.client2.tcp.conn-41 unacked:vector ETV
attr interpolationmode sample-hold
vector 331 scenario.client3.tcp.conn-42 rcvSeq:vector ETV
attr interpolationmode sample-hold
vector 332 scenario.client3.tcp.conn-42 rcvAck:vector ETV
attr interpolationmode sample-hold
vector 333 scenario.client3.tcp.conn-42 unacked:vector ETV
attr interpolationmode sample-hold
vector 334 scenario.client3.tcp.conn-42 cwnd:vector ETV
attr interpolationmode sample-hold
vector 335 scenario.client3.tcp.conn-42 ssthresh:vector ETV
attr interpolationmode sample-hold
vector 336 scenario.client3.tcp.conn-42 dupAcks:vector ETV
attr interpolationmode sample-hold
vector 337 scenario.client2.tcp.conn-41 rtt:vector ETV
attr interpolationmode sample-hold
vector 338 scenario.client2.tcp.conn-41 srtt:vector ETV
attr interpolationmode sample-hold
vector 339 scenario.client2.tcp.conn-41 rttvar:vector ETV
attr interpolationmode sample-hold
vector 340 scenario.client2.tcp.conn-41 rto:vector ETV
attr interpolationmode sample-hold
vector 341 scenario.client2.tcp.conn-41 cwnd:vector ETV
attr interpolationmode sample-hold
vector 342 scenario.client2.tcp.conn-41 ssthresh:vector ETV
attr interpolationmode sample-hold
vector 343 scenario.client2.tcp.conn-41 dupAcks:vector ETV
attr interpolationmode sample-hold
vector 344 scenario.client4.tcp.conn-43 tcpRcvQueueBytes:vector ETV
attr interpolationmode sample-hold
vector 345 scenario.client4.tcp.conn-43 rcvAdv:vector ETV
attr interpolationmode sample-hold
vector 346 scenario.client4.tcp.conn-43 rcvWnd:vector ETV
attr interpolationmode sample-hold
vector 347 scenario.client4.tcp.conn-43 sndAck:vector ETV
attr interpolationmode sample-hold
vector 348 scenario.client4.ppp[2].ppp rcvdPkFromHl:vector(packetBytes) ETV
attr interpolationmode none
attr source packetReceivedFromUpper
attr title "packets received from higher layer, vector(packetBytes)"
vector 349 scenario.client4.ppp[2].ppp.queue packetPushed:vector(packetBytes) ETV
attr interpolationmode none
attr title "packet pushed, vector(packetBytes)"
vector 350 scenario.client4.ppp[2].ppp.queue queueLength:vector ETV
attr interpolationmode sample-hold
attr source "count(packetPushed) - count(packetPopped) - count(packetRemoved) - count(packetDropped)"
attr title "queue length, vector"
vector 351 scenario.client4.ppp[2].ppp.queue packetPopped:vector(packetBytes) ETV
attr interpolationmode none
attr title "packet popped, vector(packetBytes)"
vector 352 scenario.client4.ppp[2].ppp.queue queueingTime:vector ETV
attr interpolationmode none
attr source queueingTime(packetPopped)
attr title "queueing times, vector"
attr unit s
vector 353 scenario.client4.ppp[2].ppp txPk:vector(packetBytes) ETV
attr interpolationmode none
attr source packetSentToLower
attr title "packets transmitted, vector(packetBytes)"
vector 354 scenario.client2.ppp[3].ppp rxPkOk:vector(packetBytes) ETV
attr interpolationmode none
attr source rxPkOk
attr title "packets received OK, vector(packetBytes)"
vector 355 scenario.client2.ppp[3].ppp passedUpPk:vector(packetBytes) ETV
attr interpolationmode none
attr source packetSentToUpper
attr title "packets passed to higher layer, vector(packetBytes)"
vector 356 scenario.client2.tcp.conn-44 rcvAdv:vector ETV
attr interpolationmode sample-hold
vector 357 scenario.client2.tcp.conn-44 sndWnd:vector ETV
attr interpolationmode sample-hold
vector 358 scenario.client2.tcp.conn-44 tcpRcvQueueBytes:vector ETV
attr interpolationmode sample-hold
vector 359 scenario.client2.tcp.conn-44 rcvWnd:vector ETV
attr interpolationmode sample-hold
vector 360 scenario.client2.tcp.conn-44 sndAck:vector ETV
attr interpolationmode sample-hold
vector 361 scenario.client2.ppp[3].ppp rcvdPkFromHl:vector(packetBytes) ETV
attr interpolationmode none
attr source packetReceivedFromUpper
attr title "packets received from higher layer, vector(packetBytes)"
vector 362 scenario.client2.ppp[3].ppp.queue packetPushed:vector(packetBytes) ETV
attr interpolationmode none
attr title "packet pushed, vector(packetBytes)"
vector 363 scenario.client2.ppp[3].ppp.queue queueLength:vector ETV
attr interpolationmode sample-hold
attr source "count(packetPushed) - count(packetPopped) - count(packetRemoved) - count(packetDropped)"
attr title "queue length, vector"
vector 364 scenario.client2.ppp[3].ppp.queue packetPopped:vector(packetBytes) ETV
attr interpolationmode none
attr title "packet popped, vector(packetBytes)"
vector 365 scenario.client2.ppp[3].ppp.queue queueingTime:vector ETV
attr interpolationmode none
attr source queueingTime(packetPopped)
attr title "queueing times, vector"
attr unit s
vector 366 scenario.client2.ppp[3].ppp txPk:vector(packetBytes) ETV
attr interpolationmode none
attr source packetSentToLower
attr title "packets transmitted, vector(packetBytes)"
vector 367 scenario.client4.ppp[2].ppp rxPkOk:vector(packetBytes) ETV
attr interpolationmode none
attr source rxPkOk
attr title "packets received OK, vector(packetBytes)"
vector 368 scenario.client4.ppp[2].ppp passedUpPk:vector(packetBytes) ETV
attr interpolationmode none
attr source packetSentToUpper
attr title "packets passed to higher layer, vector(packetBytes)"
vector 369 scenario.client4.tcp.conn-43 rcvSeq:vector ETV
attr interpolationmode sample-hold
vector 370 scenario.client4.tcp.conn-43 rcvAck:vector ETV
attr interpolationmode sample-hold
vector 371 scenario.client4.tcp.conn-43 sndWnd:vector ETV
attr interpolationmode sample-hold
vector 372 scenario.client4.tcp.conn-43 unacked:vector ETV
attr interpolationmode sample-hold
vector 373 scenario.client2.tcp.conn-44 rcvSeq:vector ETV
attr interpolationmode sample-hold
vector 374 scenario.client2.tcp.conn-44 rcvAck:vector ETV
attr interpolationmode sample-hold
vector 375 scenario.client2.tcp.conn-44 unacked:vector ETV
attr interpolationmode sample-hold
vector 376 scenario.client2.tcp.conn-44 cwnd:vector ETV
attr interpolationmode sample-hold
vector 377 scenario.client2.tcp.conn-44 ssthresh:vector ETV
attr interpolationmode sample-hold
vector 378 scenario.client2.tcp.conn-44 dupAcks:vector ETV
attr interpolationmode sample-hold
vector 379 scenario.client4.tcp.conn-43 rtt:vector ETV
attr interpolationmode sample-hold
vector 380 scenario.client4.tcp.conn-43 srtt:vector ETV
attr interpolationmode sample-hold
vector 381 scenario.client4.tcp.conn-43 rttvar:vector ETV
attr interpolationmode sample-hold
vector 382 scenario.client4.tcp.conn-43 rto:vector ETV
attr interpolationmode sample-hold
vector 383 scenario.client4.tcp.conn-43 cwnd:vector ETV
attr interpolationmode sample-hold
vector 384 scenario.client4.tcp.conn-43 ssthresh:vector ETV
attr interpolationmode sample-hold
vector 385 scenario.client4.tcp.conn-43 dupAcks:vector ETV
attr interpolationmode sample-hold
vector 386 scenario.client1.tcp.conn-45 tcpRcvQueueBytes:vector ETV
attr interpolationmode sample-hold
vector 387 scenario.client1.tcp.conn-45 rcvAdv:vector ETV
attr interpolationmode sample-hold
vector 388 scenario.client1.tcp.conn-45 rcvWnd:vector ETV
attr interpolationmode sample-hold
vector 389 scenario.client1.tcp.conn-45 sndAck:vector ETV
attr interpolationmode sample-hold
vector 390 scenario.client4.tcp.conn-46 rcvAdv:vector ETV
attr interpolationmode sample-hold
vector 391 scenario.client4.tcp.conn-46 sndWnd:vector ETV
attr interpolationmode sample-hold
vector 392 scenario.client4.tcp.conn-46 tcpRcvQueueBytes:vector ETV
attr interpolationmode sample-hold
vector 393 scenario.client4.tcp.conn-46 rcvWnd:vector ETV
attr interpolationmode sample-hold
vector 394 scenario.client4.tcp.conn-46 sndAck:vector ETV
attr interpolationmode sample-hold
vector 395 scenario.client1.tcp.conn-45 rcvSeq:vector ETV
attr interpolationmode sample-hold
vector 396 scenario.client1.tcp.conn-45 rcvAck:vector ETV
attr interpolationmode sample-hold
vector 397 scenario.client1.tcp.conn-45 sndWnd:vector ETV
attr interpolationmode sample-hold
vector 398 scenario.client1.tcp.conn-45 unacked:vector ETV
attr interpolationmode sample-hold
vector 399 scenario.client4.tcp.conn-46 rcvSeq:vector ETV
attr interpolationmode sample-hold
vector 400 scenario.client4.tcp.conn-46 rcvAck:vector ETV
attr interpolationmode sample-hold
vector 401 scenario.client4.tcp.conn-46 unacked:vector ETV
attr interpolationmode sample-hold
vector 402 scenario.client4.tcp.conn-46 cwnd:vector ETV
attr interpolationmode sample-hold
vector 403 scenario.client4.tcp.conn-46 ssthresh:vector ETV
attr interpolationmode sample-hold
vector 404 scenario.client4.tcp.conn-46 dupAcks:vector ETV
attr interpolationmode sample-hold
vector 405 scenario.client1.tcp.conn-45 rtt:vector ETV
attr interpolationmode sample-hold
vector 406 scenario.client1.tcp.conn-45 srtt:vector ETV
attr interpolationmode sample-hold
vector 407 scenario.client1.tcp.conn-45 rttvar:vector ETV
attr interpolationmode sample-hold
vector 408 scenario.client1.tcp.conn-45 rto:vector ETV
attr interpolationmode sample-hold
vector 409 scenario.client1.tcp.conn-45 cwnd:vector ETV
attr interpolationmode sample-hold
vector 410 scenario.client1.tcp.conn-45 ssthresh:vector ETV
attr interpolationmode sample-hold
vector 411 scenario.client1.tcp.conn-45 dupAcks:vector ETV
attr interpolationmode sample-hold
vector 412 scenario.client2.tcp.conn-47 tcpRcvQueueBytes:vector ETV
attr interpolationmode sample-hold
vector 413 scenario.client2.tcp.conn-47 rcvAdv:vector ETV
attr interpolationmode sample-hold
vector 414 scenario.client2.tcp.conn-47 rcvWnd:vector ETV
attr interpolationmode sample-hold
vector 415 scenario.client2.tcp.conn-47 sndAck:vector ETV
attr interpolationmode sample-hold
vector 416 scenario.client4.tcp.conn-48 rcvAdv:vector ETV
attr interpolationmode sample-hold
vector 417 scenario.client4.tcp.conn-48 sndWnd:vector ETV
attr interpolationmode sample-hold
vector 418 scenario.client4.tcp.conn-48 tcpRcvQueueBytes:vector ETV
attr interpolationmode sample-hold
vector 419 scenario.client4.tcp.conn-48 rcvWnd:vector ETV
attr interpolationmode sample-hold
vector 420 scenario.client4.tcp.conn-48 sndAck:vector ETV
attr interpolationmode sample-hold
vector 421 scenario.client2.tcp.conn-47 rcvSeq:vector ETV
attr interpolationmode sample-hold
vector 422 scenario.client2.tcp.conn-47 rcvAck:vector ETV
attr interpolationmode sample-hold
vector 423 scenario.client2.tcp.conn-47 sndWnd:vector ETV
attr interpolationmode sample-hold
vector 424 scenario.client2.tcp.conn-47 unacked:vector ETV
attr interpolationmode sample-hold
vector 425 scenario.client4.tcp.conn-48 rcvSeq:vector ETV
attr interpolationmode sample-hold
vector 426 scenario.client4.tcp.conn-48 rcvAck:vector ETV
attr interpolationmode sample-hold
vector 427 scenario.client4.tcp.conn-48 unacked:vector ETV
attr interpolationmode sample-hold
vector 428 scenario.client4.tcp.conn-48 cwnd:vector ETV
attr interpolationmode sample-hold
vector 429 scenario.client4.tcp.conn-48 ssthresh:vector ETV
attr interpolationmode sample-hold
vector 430 scenario.client4.tcp.conn-48 dupAcks:vector ETV
attr interpolationmode sample-hold
vector 431 scenario.client2.tcp.conn-47 rtt:vector ETV
attr interpolationmode sample-hold
vector 432 scenario.client2.tcp.conn-47 srtt:vector ETV
attr interpolationmode sample-hold
vector 433 scenario.client2.tcp.conn-47 rttvar:vector ETV
attr interpolationmode sample-hold
vector 434 scenario.client2.tcp.conn-47 rto:vector ETV
attr interpolationmode sample-hold
vector 435 scenario.client2.tcp.conn-47 cwnd:vector ETV
attr interpolationmode sample-hold
vector 436 scenario.client2.tcp.conn-47 ssthresh:vector ETV
attr interpolationmode sample-hold
vector 437 scenario.client2.tcp.conn-47 dupAcks:vector ETV
attr interpolationmode sample-hold
vector 438 scenario.client1.tcp.conn-49 tcpRcvQueueBytes:vector ETV
attr interpolationmode sample-hold
vector 439 scenario.client1.tcp.conn-49 rcvAdv:vector ETV
attr interpolationmode sample-hold
vector 440 scenario.client1.tcp.conn-49 rcvWnd:vector ETV
attr interpolationmode sample-hold
vector 441 scenario.client1.tcp.conn-49 sndAck:vector ETV
attr interpolationmode sample-hold
vector 442 scenario.client1.ppp[1].ppp rcvdPkFromHl:vector(packetBytes) ETV
attr interpolationmode none
attr source packetReceivedFromUpper
attr title "packets received from higher layer, vector(packetBytes)"
vector 443 scenario.client1.ppp[1].ppp.queue packetPushed:vector(packetBytes) ETV
attr interpolationmode none
attr title "packet pushed, vector(packetBytes)"
vector 444 scenario.client1.ppp[1].ppp.queue queueLength:vector ETV
attr interpolationmode sample-hold
attr source "count(packetPushed) - count(packetPopped) - count(packetRemoved) - count(packetDropped)"
attr title "queue length, vector"
vector 445 scenario.client1.ppp[1].ppp.queue packetPopped:vector(packetBytes) ETV
attr interpolationmode none
attr title "packet popped, vector(packetBytes)"
vector 446 scenario.client1.ppp[1].ppp.queue queueingTime:vector ETV
attr interpolationmode none
attr source queueingTime(packetPopped)
attr title "queueing times, vector"
attr unit s
vector 447 scenario.client1.ppp[1].ppp txPk:vector(packetBytes) ETV
attr interpolationmode none
attr source packetSentToLower
attr title "packets transmitted, vector(packetBytes)"
vector 448 scenario.client2.ppp[1].ppp rxPkOk:vector(packetBytes) ETV
attr interpolationmode none
attr source rxPkOk
attr title "packets received OK, vector(packetBytes)"
vector 449 scenario.client2.ppp[1].ppp passedUpPk:vector(packetBytes) ETV
attr interpolationmode none
attr source packetSentToUpper
attr title "packets passed to higher layer, vector(packetBytes)"
vector 450 scenario.client2.tcp.conn-50 rcvAdv:vector ETV
attr interpolationmode sample-hold
vector 451 scenario.client2.tcp.conn-50 sndWnd:vector ETV
attr interpolationmode sample-hold
vector 452 scenario.client2.tcp.conn-50 tcpRcvQueueBytes:vector ETV
attr interpolationmode sample-hold
vector 453 scenario.client2.tcp.conn-50 rcvWnd:vector ETV
attr interpolationmode sample-hold
vector 454 scenario.client2.tcp.conn-50 sndAck:vector ETV
attr interpolationmode sample-hold
vector 455 scenario.client2.ppp[1].ppp rcvdPkFromHl:vector(packetBytes) ETV
attr interpolationmode none
attr source packetReceivedFromUpper
attr title "packets received from higher layer, vector(packetBytes)"
vector 456 scenario.client2.ppp[1].ppp.queue packetPushed:vector(packetBytes) ETV
attr interpolationmode none
attr title "packet pushed, vector(packetBytes)"
vector 457 scenario.client2.ppp[1].ppp.queue queueLength:vector ETV
attr interpolationmode sample-hold
attr source "count(packetPushed) - count(packetPopped) - count(packetRemoved) - count(packetDropped)"
attr title "queue length, vector"
vector 458 scenario.client2.ppp[1].ppp.queue packetPopped:vector(packetBytes) ETV
attr interpolationmode none
attr title "packet popped, vector(packetBytes)"
vector 459 scenario.client2.ppp[1].ppp.queue queueingTime:vector ETV
attr interpolationmode none
attr source queueingTime(packetPopped)
attr title "queueing times, vector"
attr unit s
vector 460 scenario.client2.ppp[1].ppp txPk:vector(packetBytes) ETV
attr interpolationmode none
attr source packetSentToLower
attr title "packets transmitted, vector(packetBytes)"
vector 461 scenario.client1.ppp[1].ppp rxPkOk:vector(packetBytes) ETV
attr interpolationmode none
attr source rxPkOk
attr title "packets received OK, vector(packetBytes)"
vector 462 scenario.client1.ppp[1].ppp passedUpPk:vector(packetBytes) ETV
attr interpolationmode none
attr source packetSentToUpper
attr title "packets passed to higher layer, vector(packetBytes)"
vector 463 scenario.client1.tcp.conn-49 rcvSeq:vector ETV
attr interpolationmode sample-hold
vector 464 scenario.client1.tcp.conn-49 rcvAck:vector ETV
attr interpolationmode sample-hold
vector 465 scenario.client1.tcp.conn-49 sndWnd:vector ETV
attr interpolationmode sample-hold
vector 466 scenario.client1.tcp.conn-49 unacked:vector ETV
attr interpolationmode sample-hold
vector 467 scenario.client2.tcp.conn-50 rcvSeq:vector ETV
attr interpolationmode sample-hold
vector 468 scenario.client2.tcp.conn-50 rcvAck:vector ETV
attr interpolationmode sample-hold
vector 469 scenario.client2.tcp.conn-50 unacked:vector ETV
attr interpolationmode sample-hold
vector 470 scenario.client2.tcp.conn-50 cwnd:vector ETV
attr interpolationmode sample-hold
vector 471 scenario.client2.tcp.conn-50 ssthresh:vector ETV
attr interpolationmode sample-hold
vector 472 scenario.client2.tcp.conn-50 dupAcks:vector ETV
attr interpolationmode sample-hold
vector 473 scenario.client1.tcp.conn-49 rtt:vector ETV
attr interpolationmode sample-hold
vector 474 scenario.client1.tcp.conn-49 srtt:vector ETV
attr interpolationmode sample-hold
vector 475 scenario.client1.tcp.conn-49 rttvar:vector ETV
attr interpolationmode sample-hold
vector 476 scenario.client1.tcp.conn-49 rto:vector ETV
attr interpolationmode sample-hold
vector 477 scenario.client1.tcp.conn-49 cwnd:vector ETV
attr interpolationmode sample-hold
vector 478 scenario.client1.tcp.conn-49 ssthresh:vector ETV
attr interpolationmode sample-hold
vector 479 scenario.client1.tcp.conn-49 dupAcks:vector ETV
attr interpolationmode sample-hold
vector 480 scenario.client2.tcp.conn-51 tcpRcvQueueBytes:vector ETV
attr interpolationmode sample-hold
vector 481 scenario.client2.tcp.conn-51 rcvAdv:vector ETV
attr interpolationmode sample-hold
vector 482 scenario.client2.tcp.conn-51 rcvWnd:vector ETV
attr interpolationmode sample-hold
vector 483 scenario.client2.tcp.conn-51 sndAck:vector ETV
attr interpolationmode sample-hold
vector 484 scenario.client1.tcp.conn-52 rcvAdv:vector ETV
attr interpolationmode sample-hold
vector 485 scenario.client1.tcp.conn-52 sndWnd:vector ETV
attr interpolationmode sample-hold
vector 486 scenario.client1.tcp.conn-52 tcpRcvQueueBytes:vector ETV
attr interpolationmode sample-hold
vector 487 scenario.client1.tcp.conn-52 rcvWnd:vector ETV
attr interpolationmode sample-hold
vector 488 scenario.client1.tcp.conn-52 sndAck:vector ETV
attr interpolationmode sample-hold
vector 489 scenario.client2.tcp.conn-51 rcvSeq:vector ETV
attr interpolationmode sample-hold
vector 490 scenario.client2.tcp.conn-51 rcvAck:vector ETV
attr interpolationmode sample-hold
vector 491 scenario.client2.tcp.conn-51 sndWnd:vector ETV
attr interpolationmode sample-hold
vector 492 scenario.client2.tcp.conn-51 unacked:vector ETV
attr interpolationmode sample-hold
vector 493 scenario.client1.tcp.conn-52 rcvSeq:vector ETV
attr interpolationmode sample-hold
vector 494 scenario.client1.tcp.conn-52 rcvAck:vector ETV
attr interpolationmode sample-hold
vector 495 scenario.client1.tcp.conn-52 unacked:vector ETV
attr interpolationmode sample-hold
vector 496 scenario.client1.tcp.conn-52 cwnd:vector ETV
attr interpolationmode sample-hold
vector 497 scenario.client1.tcp.conn-52 ssthresh:vector ETV
attr interpolationmode sample-hold
vector 498 scenario.client1.tcp.conn-52 dupAcks:vector ETV
attr interpolationmode sample-hold
vector 499 scenario.client2.tcp.conn-51 rtt:vector ETV
attr interpolationmode sample-hold
vector 500 scenario.client2.tcp.conn-51 srtt:vector ETV
attr interpolationmode sample-hold
vector 501 scenario.client2.tcp.conn-51 rttvar:vector ETV
attr interpolationmode sample-hold
vector 502 scenario.client2.tcp.conn-51 rto:vector ETV
attr interpolationmode sample-hold
vector 503 scenario.client2.tcp.conn-51 cwnd:vector ETV
attr interpolationmode sample-hold
vector 504 scenario.client2.tcp.conn-51 ssthresh:vector ETV
attr interpolationmode sample-hold
vector 505 scenario.client2.tcp.conn-51 dupAcks:vector ETV
attr interpolationmode sample-hold
vector 506 scenario.client0.tcp.conn-53 tcpRcvQueueBytes:vector ETV
attr interpolationmode sample-hold
vector 507 scenario.client0.tcp.conn-53 rcvAdv:vector ETV
attr interpolationmode sample-hold
vector 508 scenario.client0.tcp.conn-53 rcvWnd:vector ETV
attr interpolationmode sample-hold
vector 509 scenario.client0.tcp.conn-53 sndAck:vector ETV
attr interpolationmode sample-hold
vector 510 scenario.client0.ppp[1].ppp rcvdPkFromHl:vector(packetBytes) ETV
attr interpolationmode none
attr source packetReceivedFromUpper
attr title "packets received from higher layer, vector(packetBytes)"
vector 511 scenario.client0.ppp[1].ppp.queue packetPushed:vector(packetBytes) ETV
attr interpolationmode none
attr title "packet pushed, vector(packetBytes)"
vector 512 scenario.client0.ppp[1].ppp.queue queueLength:vector ETV
attr interpolationmode sample-hold
attr source "count(packetPushed) - count(packetPopped) - count(packetRemoved) - count(packetDropped)"
attr title "queue length, vector"
vector 513 scenario.client0.ppp[1].ppp.queue packetPopped:vector(packetBytes) ETV
attr interpolationmode none
attr title "packet popped, vector(packetBytes)"
vector 514 scenario.client0.ppp[1].ppp.queue queueingTime:vector ETV
attr interpolationmode none
attr source queueingTime(packetPopped)
attr title "queueing times, vector"
attr unit s
vector 515 scenario.client0.ppp[1].ppp txPk:vector(packetBytes) ETV
attr interpolationmode none
attr source packetSentToLower
attr title "packets transmitted, vector(packetBytes)"
vector 516 scenario.client2.ppp[0].ppp rxPkOk:vector(packetBytes) ETV
attr interpolationmode none
attr source rxPkOk
attr title "packets received OK, vector(packetBytes)"
vector 517 scenario.client2.ppp[0].ppp passedUpPk:vector(packetBytes) ETV
attr interpolationmode none
attr source packetSentToUpper
attr title "packets passed to higher layer, vector(packetBytes)"
vector 518 scenario.client2.tcp.conn-54 rcvAdv:vector ETV
attr interpolationmode sample-hold
vector 519 scenario.client2.tcp.conn-54 sndWnd:vector ETV
attr interpolationmode sample-hold
vector 520 scenario.client2.tcp.conn-54 tcpRcvQueueBytes:vector ETV
attr interpolationmode sample-hold
vector 521 scenario.client2.tcp.conn-54 rcvWnd:vector ETV
attr interpolationmode sample-hold
vector 522 scenario.client2.tcp.conn-54 sndAck:vector ETV
attr interpolationmode sample-hold
vector 523 scenario.client2.ppp[0].ppp rcvdPkFromHl:vector(packetBytes) ETV
attr interpolationmode none
attr source packetReceivedFromUpper
attr title "packets received from higher layer, vector(packetBytes)"
vector 524 scenario.client2.ppp[0].ppp.queue packetPushed:vector(packetBytes) ETV
attr interpolationmode none
attr title "packet pushed, vector(packetBytes)"
vector 525 scenario.client2.ppp[0].ppp.queue queueLength:vector ETV
attr interpolationmode sample-hold
attr source "count(packetPushed) - count(packetPopped) - count(packetRemoved) - count(packetDropped)"
attr title "queue length, vector"
vector 526 scenario.client2.ppp[0].ppp.queue packetPopped:vector(packetBytes) ETV
attr interpolationmode none
attr title "packet popped, vector(packetBytes)"
vector 527 scenario.client2.ppp[0].ppp.queue queueingTime:vector ETV
attr interpolationmode none
attr source queueingTime(packetPopped)
attr title "queueing times, vector"
attr unit s
vector 528 scenario.client2.ppp[0].ppp txPk:vector(packetBytes) ETV
attr interpolationmode none
attr source packetSentToLower
attr title "packets transmitted, vector(packetBytes)"
vector 529 scenario.client0.ppp[1].ppp rxPkOk:vector(packetBytes) ETV
attr interpolationmode none
attr source rxPkOk
attr title "packets received OK, vector(packetBytes)"
vector 530 scenario.client0.ppp[1].ppp passedUpPk:vector(packetBytes) ETV
attr interpolationmode none
attr source packetSentToUpper
attr title "packets passed to higher layer, vector(packetBytes)"
vector 531 scenario.client0.tcp.conn-53 rcvSeq:vector ETV
attr interpolationmode sample-hold
vector 532 scenario.client0.tcp.conn-53 rcvAck:vector ETV
attr interpolationmode sample-hold
vector 533 scenario.client0.tcp.conn-53 sndWnd:vector ETV
attr interpolationmode sample-hold
vector 534 scenario.client0.tcp.conn-53 unacked:vector ETV
attr interpolationmode sample-hold
vector 535 scenario.client2.tcp.conn-54 rcvSeq:vector ETV
attr interpolationmode sample-hold
vector 536 scenario.client2.tcp.conn-54 rcvAck:vector ETV
attr interpolationmode sample-hold
vector 537 scenario.client2.tcp.conn-54 unacked:vector ETV
attr interpolationmode sample-hold
vector 538 scenario.client2.tcp.conn-54 cwnd:vector ETV
attr interpolationmode sample-hold
vector 539 scenario.client2.tcp.conn-54 ssthresh:vector ETV
attr interpolationmode sample-hold
vector 540 scenario.client2.tcp.conn-54 dupAcks:vector ETV
attr interpolationmode sample-hold
vector 541 scenario.client0.tcp.conn-53 rtt:vector ETV
attr interpolationmode sample-hold
vector 542 scenario.client0.tcp.conn-53 srtt:vector ETV
attr interpolationmode sample-hold
vector 543 scenario.client0.tcp.conn-53 rttvar:vector ETV
attr interpolationmode sample-hold
vector 544 scenario.client0.tcp.conn-53 rto:vector ETV
attr interpolationmode sample-hold
vector 545 scenario.client0.tcp.conn-53 cwnd:vector ETV
attr interpolationmode sample-hold
vector 546 scenario.client0.tcp.conn-53 ssthresh:vector ETV
attr interpolationmode sample-hold
vector 547 scenario.client0.tcp.conn-53 dupAcks:vector ETV
attr interpolationmode sample-hold
vector 548 scenario.client2.tcp.conn-55 tcpRcvQueueBytes:vector ETV
attr interpolationmode sample-hold
vector 549 scenario.client2.tcp.conn-55 rcvAdv:vector ETV
attr interpolationmode sample-hold
vector 550 scenario.client2.tcp.conn-55 rcvWnd:vector ETV
attr interpolationmode sample-hold
vector 551 scenario.client2.tcp.conn-55 sndAck:vector ETV
attr interpolationmode sample-hold
vector 552 scenario.client0.tcp.conn-56 rcvAdv:vector ETV
attr interpolationmode sample-hold
vector 553 scenario.client0.tcp.conn-56 sndWnd:vector ETV
attr interpolationmode sample-hold
vector 554 scenario.client0.tcp.conn-56 tcpRcvQueueBytes:vector ETV
attr interpolationmode sample-hold
vector 555 scenario.client0.tcp.conn-56 rcvWnd:vector ETV
attr interpolationmode sample-hold
vector 556 scenario.client0.tcp.conn-56 sndAck:vector ETV
attr interpolationmode sample-hold
vector 557 scenario.client2.tcp.conn-55 rcvSeq:vector ETV
attr interpolationmode sample-hold
vector 558 scenario.client2.tcp.conn-55 rcvAck:vector ETV
attr interpolationmode sample-hold
vector 559 scenario.client2.tcp.conn-55 sndWnd:vector ETV
attr interpolationmode sample-hold
vector 560 scenario.client2.tcp.conn-55 unacked:vector ETV
attr interpolationmode sample-hold
vector 561 scenario.client0.tcp.conn-56 rcvSeq:vector ETV
attr interpolationmode sample-hold
vector 562 scenario.client0.tcp.conn-56 rcvAck:vector ETV
attr interpolationmode sample-hold
vector 563 scenario.client0.tcp.conn-56 unacked:vector ETV
attr interpolationmode sample-hold
vector 564 scenario.client0.tcp.conn-56 cwnd:vector ETV
attr interpolationmode sample-hold
vector 565 scenario.client0.tcp.conn-56 ssthresh:vector ETV
attr interpolationmode sample-hold
vector 566 scenario.client0.tcp.conn-56 dupAcks:vector ETV
attr interpolationmode sample-hold
vector 567 scenario.client2.tcp.conn-55 rtt:vector ETV
attr interpolationmode sample-hold
vector 568 scenario.client2.tcp.conn-55 srtt:vector ETV
attr interpolationmode sample-hold
vector 569 scenario.client2.tcp.conn-55 rttvar:vector ETV
attr interpolationmode sample-hold
vector 570 scenario.client2.tcp.conn-55 rto:vector ETV
attr interpolationmode sample-hold
vector 571 scenario.client2.tcp.conn-55 cwnd:vector ETV
attr interpolationmode sample-hold
vector 572 scenario.client2.tcp.conn-55 ssthresh:vector ETV
attr interpolationmode sample-hold
vector 573 scenario.client2.tcp.conn-55 dupAcks:vector ETV
attr interpolationmode sample-hold
vector 574 scenario.client0.tcp.conn-57 tcpRcvQueueBytes:vector ETV
attr interpolationmode sample-hold
vector 575 scenario.client0.tcp.conn-57 rcvAdv:vector ETV
attr interpolationmode sample-hold
vector 576 scenario.client0.tcp.conn-57 rcvWnd:vector ETV
attr interpolationmode sample-hold
vector 577 scenario.client0.tcp.conn-57 sndAck:vector ETV
attr interpolationmode sample-hold
vector 578 scenario.client0.ppp[0].ppp rcvdPkFromHl:vector(packetBytes) ETV
attr interpolationmode none
attr source packetReceivedFromUpper
attr title "packets received from higher layer, vector(packetBytes)"
vector 579 scenario.client0.ppp[0].ppp.queue packetPushed:vector(packetBytes) ETV
attr interpolationmode none
attr title "packet pushed, vector(packetBytes)"
vector 580 scenario.client0.ppp[0].ppp.queue queueLength:vector ETV
attr interpolationmode sample-hold
attr source "count(packetPushed) - count(packetPopped) - count(packetRemoved) - count(packetDropped)"
attr title "queue length, vector"
vector 581 scenario.client0.ppp[0].ppp.queue packetPopped:vector(packetBytes) ETV
attr interpolationmode none
attr title "packet popped, vector(packetBytes)"
vector 582 scenario.client0.ppp[0].ppp.queue queueingTime:vector ETV
attr interpolationmode none
attr source queueingTime(packetPopped)
attr title "queueing times, vector"
attr unit s
vector 583 scenario.client0.ppp[0].ppp txPk:vector(packetBytes) ETV
attr interpolationmode none
attr source packetSentToLower
attr title "packets transmitted, vector(packetBytes)"
vector 584 scenario.client1.ppp[0].ppp rxPkOk:vector(packetBytes) ETV
attr interpolationmode none
attr source rxPkOk
attr title "packets received OK, vector(packetBytes)"
vector 585 scenario.client1.ppp[0].ppp passedUpPk:vector(packetBytes) ETV
attr interpolationmode none
attr source packetSentToUpper
attr title "packets passed to higher layer, vector(packetBytes)"
vector 586 scenario.client1.tcp.conn-58 rcvAdv:vector ETV
attr interpolationmode sample-hold
vector 587 scenario.client1.tcp.conn-58 sndWnd:vector ETV
attr interpolationmode sample-hold
vector 588 scenario.client1.tcp.conn-58 tcpRcvQueueBytes:vector ETV
attr interpolationmode sample-hold
vector 589 scenario.client1.tcp.conn-58 rcvWnd:vector ETV
attr interpolationmode sample-hold
vector 590 scenario.client1.tcp.conn-58 sndAck:vector ETV
attr interpolationmode sample-hold
vector 591 scenario.client1.ppp[0].ppp rcvdPkFromHl:vector(packetBytes) ETV
attr interpolationmode none
attr source packetReceivedFromUpper
attr title "packets received from higher layer, vector(packetBytes)"
vector 592 scenario.client1.ppp[0].ppp.queue packetPushed:vector(packetBytes) ETV
attr interpolationmode none
attr title "packet pushed, vector(packetBytes)"
vector 593 scenario.client1.ppp[0].ppp.queue queueLength:vector ETV
attr interpolationmode sample-hold
attr source "count(packetPushed) - count(packetPopped) - count(packetRemoved) - count(packetDropped)"
attr title "queue length, vector"
vector 594 scenario.client1.ppp[0].ppp.queue packetPopped:vector(packetBytes) ETV
attr interpolationmode none
attr title "packet popped, vector(packetBytes)"
vector 595 scenario.client1.ppp[0].ppp.queue queueingTime:vector ETV
attr interpolationmode none
attr source queueingTime(packetPopped)
attr title "queueing times, vector"
attr unit s
vector 596 scenario.client1.ppp[0].ppp txPk:vector(packetBytes) ETV
attr interpolationmode none
attr source packetSentToLower
attr title "packets transmitted, vector(packetBytes)"
vector 597 scenario.client0.ppp[0].ppp rxPkOk:vector(packetBytes) ETV
attr interpolationmode none
attr source rxPkOk
attr title "packets received OK, vector(packetBytes)"
vector 598 scenario.client0.ppp[0].ppp passedUpPk:vector(packetBytes) ETV
attr interpolationmode none
attr source packetSentToUpper
attr title "packets passed to higher layer, vector(packetBytes)"
vector 599 scenario.client0.tcp.conn-57 rcvSeq:vector ETV
attr interpolationmode sample-hold
vector 600 scenario.client0.tcp.conn-57 rcvAck:vector ETV
attr interpolationmode sample-hold
vector 601 scenario.client0.tcp.conn-57 sndWnd:vector ETV
attr interpolationmode sample-hold
vector 602 scenario.client0.tcp.conn-57 unacked:vector ETV
attr interpolationmode sample-hold
vector 603 scenario.client1.tcp.conn-58 rcvSeq:vector ETV
attr interpolationmode sample-hold
vector 604 scenario.client1.tcp.conn-58 rcvAck:vector ETV
attr interpolationmode sample-hold
vector 605 scenario.client1.tcp.conn-58 unacked:vector ETV
attr interpolationmode sample-hold
vector 606 scenario.client1.tcp.conn-58 cwnd:vector ETV
attr interpolationmode sample-hold
vector 607 scenario.client1.tcp.conn-58 ssthresh:vector ETV
attr interpolationmode sample-hold
vector 608 scenario.client1.tcp.conn-58 dupAcks:vector ETV
attr interpolationmode sample-hold
vector 609 scenario.client0.tcp.conn-57 rtt:vector ETV
attr interpolationmode sample-hold
vector 610 scenario.client0.tcp.conn-57 srtt:vector ETV
attr interpolationmode sample-hold
vector 611 scenario.client0.tcp.conn-57 rttvar:vector ETV
attr interpolationmode sample-hold
vector 612 scenario.client0.tcp.conn-57 rto:vector ETV
attr interpolationmode sample-hold
vector 613 scenario.client0.tcp.conn-57 cwnd:vector ETV
attr interpolationmode sample-hold
vector 614 scenario.client0.tcp.conn-57 ssthresh:vector ETV
attr interpolationmode sample-hold
vector 615 scenario.client0.tcp.conn-57 dupAcks:vector ETV
attr interpolationmode sample-hold
vector 616 scenario.client1.tcp.conn-59 tcpRcvQueueBytes:vector ETV
attr interpolationmode sample-hold
vector 617 scenario.client1.tcp.conn-59 rcvAdv:vector ETV
attr interpolationmode sample-hold
vector 618 scenario.client1.tcp.conn-59 rcvWnd:vector ETV
attr interpolationmode sample-hold
vector 619 scenario.client1.tcp.conn-59 sndAck:vector ETV
attr interpolationmode sample-hold
vector 620 scenario.client0.tcp.conn-60 rcvAdv:vector ETV
attr interpolationmode sample-hold
vector 621 scenario.client0.tcp.conn-60 sndWnd:vector ETV
attr interpolationmode sample-hold
vector 622 scenario.client0.tcp.conn-60 tcpRcvQueueBytes:vector ETV
attr interpolationmode sample-hold
vector 623 scenario.client0.tcp.conn-60 rcvWnd:vector ETV
attr interpolationmode sample-hold
vector 624 scenario.client0.tcp.conn-60 sndAck:vector ETV
attr interpolationmode sample-hold
vector 625 scenario.client1.tcp.conn-59 rcvSeq:vector ETV
attr interpolationmode sample-hold
vector 626 scenario.client1.tcp.conn-59 rcvAck:vector ETV
attr interpolationmode sample-hold
vector 627 scenario.client1.tcp.conn-59 sndWnd:vector ETV
attr interpolationmode sample-hold
vector 628 scenario.client1.tcp.conn-59 unacked:vector ETV
attr interpolationmode sample-hold
vector 629 scenario.client0.tcp.conn-60 rcvSeq:vector ETV
attr interpolationmode sample-hold
vector 630 scenario.client0.tcp.conn-60 rcvAck:vector ETV
attr interpolationmode sample-hold
vector 631 scenario.client0.tcp.conn-60 unacked:vector ETV
attr interpolationmode sample-hold
vector 632 scenario.client0.tcp.conn-60 cwnd:vector ETV
attr interpolationmode sample-hold
vector 633 scenario.client0.tcp.conn-60 ssthresh:vector ETV
attr interpolationmode sample-hold
vector 634 scenario.client0.tcp.conn-60 dupAcks:vector ETV
attr interpolationmode sample-hold
vector 635 scenario.client1.tcp.conn-59 rtt:vector ETV
attr interpolationmode sample-hold
vector 636 scenario.client1.tcp.conn-59 srtt:vector ETV
attr interpolationmode sample-hold
vector 637 scenario.client1.tcp.conn-59 rttvar:vector ETV
attr interpolationmode sample-hold
vector 638 scenario.client1.tcp.conn-59 rto:vector ETV
attr interpolationmode sample-hold
vector 639 scenario.client1.tcp.conn-59 cwnd:vector ETV
attr interpolationmode sample-hold
vector 640 scenario.client1.tcp.conn-59 ssthresh:vector ETV
attr interpolationmode sample-hold
vector 641 scenario.client1.tcp.conn-59 dupAcks:vector ETV
attr interpolationmode sample-hold
0	0	0	0
0	536	6.43858149968	1
0	537	6.43898949968	0
0	549	6.44039749968	1
0	550	6.44078149968	0
0	574	6.787034285592	1
0	575	6.787442285592	0
0	589	6.788826285592	1
0	592	6.789202285592	0
0	629	7.096834193793	1
0	630	7.097218193793	0
0	651	7.183917872494	1
0	652	7.184293872494	0
0	674	7.277121400434	1
0	675	7.277505400434	0
0	728	7.279273400434	1
0	729	7.279649400434	0
0	917	7.88793292288	1
0	926	7.88830892288	0
0	926	7.88830892288	1
0	930	7.88870092288	0
1	0	0	0
1	472	6.373851741081	1
1	473	6.374259741081	0
1	485	6.375667741081	1
1	486	6.376051741081	0
1	510	6.397418846278	1
1	511	6.397826846278	0
1	525	6.399210846278	1
1	528	6.399586846278	0
1	606	6.879420332286	1
1	607	6.879796332286	0
1	760	7.357431746209	1
1	761	7.357815746209	0
1	833	7.518910069522	1
1	837	7.519286069522	0
1	923	7.88793292288	1
1	927	7.88832492288	0
1	996	8.093461010407	1
1	998	8.093845010407	0
1	1029	8.1704427651	1
1	1030	8.1708187651	0
2	0	0	0
2	183	3.36551263271	1
2	184	3.36592063271	0
2	198	3.36730463271	1
2	201	3.36768063271	0
2	241	3.685368538469	1
2	242	3.685776538469	0
2	254	3.687184538469	1
2	255	3.687568538469	0
2	861	7.528441325969	1
2	862	7.528825325969	0
2	924	7.88793292288	1
2	928	7.88832492288	0
3	0	0	0
3	55	3.1313441095	1
3	56	3.1317521095	0
3	70	3.1331361095	1
3	73	3.1335121095	0
3	81	3.140338477736	1
3	82	3.140746477736	0
3	94	3.142154477736	1
3	95	3.142538477736	0
3	745	7.309409983459	1
3	746	7.309793983459	0
3	925	7.88793292288	1
3	929	7.88832492288	0
4	0	0	0
4	542	6.43948949968	1
4	543	6.43989749968	0
4	557	6.44128149968	1
4	560	6.44165749968	0
4	568	6.786126285592	1
4	569	6.786534285592	0
4	581	6.787942285592	1
4	582	6.788326285592	0
4	636	7.097718193793	1
4	637	7.098094193793	0
4	644	7.183033872494	1
4	645	7.183417872494	0
4	685	7.278005400434	1
4	694	7.278381400434	0
4	694	7.278381400434	1
4	698	7.278773400434	0
4	906	7.88704892288	1
4	907	7.88743292288	0
4	960	7.88920092288	1
4	961	7.88957692288	0
5	0	0	0
5	408	6.289132358776	1
5	409	6.289540358776	0
5	421	6.290948358776	1
5	422	6.291332358776	0
5	446	6.362399744743	1
5	447	6.362807744743	0
5	461	6.364191744743	1
5	464	6.364567744743	0
5	621	7.017286810755	1
5	622	7.017662810755	0
5	659	7.250113556322	1
5	660	7.250497556322	0
5	691	7.278005400434	1
5	695	7.278397400434	0
5	790	7.517134069522	1
5	791	7.517518069522	0
5	844	7.519286069522	1
5	845	7.519662069522	0
5	883	7.667314617879	1
5	884	7.667690617879	0
6	0	0	0
6	119	3.23797578161	1
6	120	3.23838378161	0
6	134	3.23976778161	1
6	137	3.24014378161	0
6	145	3.282127472763	1
6	146	3.282535472763	0
6	158	3.283943472763	1
6	159	3.284327472763	0
6	692	7.278005400434	1
6	696	7.278397400434	0
6	977	7.905085361981	1
6	978	7.905469361981	0
7	0	0	0
7	215	3.452917643849	1
7	216	3.453325643849	0
7	230	3.454709643849	1
7	233	3.455085643849	0
7	337	4.053665910825	1
7	338	4.054073910825	0
7	350	4.055481910825	1
7	351	4.055865910825	0
7	693	7.278005400434	1
7	697	7.278397400434	0
7	775	7.495984742455	1
7	776	7.496368742455	0
8	0	0	0
8	478	6.374759741081	1
8	479	6.375167741081	0
8	493	6.376551741081	1
8	496	6.376927741081	0
8	504	6.396510846278	1
8	505	6.396918846278	0
8	517	6.398326846278	1
8	518	6.398710846278	0
8	599	6.878536332286	1
8	600	6.878920332286	0
8	767	7.358315746209	1
8	768	7.358691746209	0
[...]
516	474	6.374759741081	51
516	487	6.376551741081	48
516	512	6.398326846278	51
516	529	6.400086846278	47
516	608	6.880296332286	47
516	762	7.358315746209	48
516	846	7.519786069522	47
516	934	7.88882492288	49
516	1005	8.094345010407	48
516	1031	8.1713187651	47
517	474	6.374759741081	44
517	487	6.376551741081	41
517	512	6.398326846278	44
517	529	6.400086846278	40
517	608	6.880296332286	40
517	762	7.358315746209	41
517	846	7.519786069522	40
517	934	7.88882492288	42
517	1005	8.094345010407	41
517	1031	8.1713187651	40
518	476	6.374759741081	1600967
518	476	6.374759741081	1600967
518	489	6.376551741081	1600967
518	764	7.358315746209	1600969
518	940	7.88882492288	1600971
518	1007	8.094345010407	1600972
519	476	6.374759741081	7504
519	489	6.376551741081	7504
520	476	6.374759741081	0
520	489	6.376551741081	0
520	489	6.376551741081	1
520	764	7.358315746209	0
520	764	7.358315746209	0
520	940	7.88882492288	0
520	940	7.88882492288	0
520	1007	8.094345010407	0
520	1007	8.094345010407	0
521	476	6.374759741081	7504
521	489	6.376551741081	7503
521	764	7.358315746209	7504
521	940	7.88882492288	7504
521	1007	8.094345010407	7504
522	476	6.374759741081	1593463
522	489	6.376551741081	1593464
522	764	7.358315746209	1593465
522	940	7.88882492288	1593467
522	1007	8.094345010407	1593468
523	478	6.374759741081	44
523	493	6.376551741081	40
523	504	6.396510846278	44
523	517	6.398326846278	41
523	599	6.878536332286	41
523	767	7.358315746209	40
523	806	7.518018069522	42
523	949	7.88882492288	40
523	1010	8.094345010407	40
523	1022	8.1695587651	41
524	478	6.374759741081	44
524	493	6.376551741081	40
524	504	6.396510846278	44
524	517	6.398326846278	41
524	599	6.878536332286	41
524	767	7.358315746209	40
524	806	7.518018069522	42
524	949	7.88882492288	40
524	1010	8.094345010407	40
524	1022	8.1695587651	41
525	478	6.374759741081	1
525	478	6.374759741081	0
525	493	6.376551741081	1
525	493	6.376551741081	0
525	504	6.396510846278	1
525	504	6.396510846278	0
525	517	6.398326846278	1
525	517	6.398326846278	0
525	599	6.878536332286	1
525	599	6.878536332286	0
525	767	7.358315746209	1
525	767	7.358315746209	0
525	806	7.518018069522	1
525	806	7.518018069522	0
525	949	7.88882492288	1
525	949	7.88882492288	0
525	1010	8.094345010407	1
525	1010	8.094345010407	0
525	1022	8.1695587651	1
525	1022	8.1695587651	0
526	478	6.374759741081	44
526	493	6.376551741081	40
526	504	6.396510846278	44
526	517	6.398326846278	41
526	599	6.878536332286	41
526	767	7.358315746209	40
526	806	7.518018069522	42
526	949	7.88882492288	40
526	1010	8.094345010407	40
526	1022	8.1695587651	41
527	478	6.374759741081	0
527	493	6.376551741081	0
527	504	6.396510846278	0
527	517	6.398326846278	0
527	599	6.878536332286	0
527	767	7.358315746209	0
527	806	7.518018069522	0
527	949	7.88882492288	0
527	1010	8.094345010407	0
527	1022	8.1695587651	0
528	478	6.374759741081	51
528	493	6.376551741081	47
528	504	6.396510846278	51
528	517	6.398326846278	48
528	599	6.878536332286	48
528	767	7.358315746209	47
528	806	7.518018069522	49
528	949	7.88882492288	47
528	1010	8.094345010407	47
528	1022	8.1695587651	48
529	480	6.375667741081	51
529	497	6.377427741081	47
529	506	6.397418846278	51
529	519	6.399210846278	48
529	601	6.879420332286	48
529	769	7.359191746209	47
529	818	7.518910069522	49
529	962	7.88970092288	47
529	1016	8.095221010407	47
529	1024	8.1704427651	48
530	480	6.375667741081	44
530	497	6.377427741081	40
530	506	6.397418846278	44
530	519	6.399210846278	41
530	601	6.879420332286	41
530	769	7.359191746209	40
530	818	7.518910069522	42
530	962	7.88970092288	40
530	1016	8.095221010407	40
530	1024	8.1704427651	41
531	482	6.375667741081	1593689
531	499	6.377427741081	1593690
531	771	7.359191746209	1593690
531	968	7.88970092288	1593690
531	1018	8.095221010407	1593690
532	482	6.375667741081	1593463
532	499	6.377427741081	1593464
532	771	7.359191746209	1593465
532	968	7.88970092288	1593467
532	1018	8.095221010407	1593468
533	482	6.375667741081	7504
533	499	6.377427741081	7503
533	771	7.359191746209	7504
533	968	7.88970092288	7504
533	1018	8.095221010407	7504
534	482	6.375667741081	1
534	499	6.377427741081	0
534	758	7.357431746209	1
534	771	7.359191746209	0
534	914	7.88793292288	2
534	968	7.88970092288	0
534	994	8.093461010407	1
534	1018	8.095221010407	0
535	489	6.376551741081	1593463
535	764	7.358315746209	1593464
535	940	7.88882492288	1593465
535	1007	8.094345010407	1593467
536	489	6.376551741081	1593690
536	764	7.358315746209	1593690
536	940	7.88882492288	1593690
536	1007	8.094345010407	1593690
537	489	6.376551741081	0
538	489	6.376551741081	1072
539	489	6.376551741081	4294967295
540	489	6.376551741081	0
540	764	7.358315746209	0
540	940	7.88882492288	0
540	1007	8.094345010407	0
541	499	6.377427741081	0.00176
541	771	7.359191746209	0.00176
541	968	7.88970092288	0.001768
541	1018	8.095221010407	0.00176
542	499	6.377427741081	0.00022
542	771	7.359191746209	0.0004125
542	968	7.88970092288	0.0005819375
542	1018	8.095221010407	0.000729195313
543	499	6.377427741081	0.65647
543	771	7.359191746209	0.57460375
543	968	7.88970092288	0.50294771875
543	1018	8.095221010407	0.440226511719
544	499	6.377427741081	2.6261
544	771	7.359191746209	2.2988275
544	968	7.88970092288	2.0123728125
544	1018	8.095221010407	1.761635242189
545	499	6.377427741081	1072
545	771	7.359191746209	1608
545	968	7.88970092288	2144
545	1018	8.095221010407	2680
546	499	6.377427741081	4294967295
546	771	7.359191746209	4294967295
546	968	7.88970092288	4294967295
546	1018	8.095221010407	4294967295
547	499	6.377427741081	0
547	771	7.359191746209	0
547	968	7.88970092288	0
547	1018	8.095221010407	0
548	501	6.396510846278	0
548	514	6.398326846278	0
548	597	6.878536332286	0
548	797	7.518018069522	0
548	1020	8.1695587651	0
549	501	6.396510846278	7504
549	514	6.398326846278	1606859
549	514	6.398326846278	1606859
549	597	6.878536332286	1606859
549	797	7.518018069522	1606859
549	1020	8.1695587651	1606859
550	501	6.396510846278	7504
550	514	6.398326846278	7504
550	597	6.878536332286	7504
550	797	7.518018069522	7504
550	1020	8.1695587651	7504
551	501	6.396510846278	0
551	514	6.398326846278	1599355
551	597	6.878536332286	1599355
551	797	7.518018069522	1599355
551	1020	8.1695587651	1599355
552	508	6.397418846278	1606632
552	508	6.397418846278	1606632
552	521	6.399210846278	1606632
552	603	6.879420332286	1606634
552	824	7.518910069522	1606636
552	1026	8.1704427651	1606637
553	508	6.397418846278	7504
553	521	6.399210846278	7504
554	508	6.397418846278	0
554	521	6.399210846278	0
554	521	6.399210846278	1
554	603	6.879420332286	0
554	603	6.879420332286	0
554	824	7.518910069522	0
554	824	7.518910069522	0
554	1026	8.1704427651	0
554	1026	8.1704427651	0
555	508	6.397418846278	7504
555	521	6.399210846278	7503
555	603	6.879420332286	7504
555	824	7.518910069522	7504
555	1026	8.1704427651	7504
556	508	6.397418846278	1599128
556	521	6.399210846278	1599129
556	603	6.879420332286	1599130
556	824	7.518910069522	1599132
556	1026	8.1704427651	1599133
557	514	6.398326846278	1599354
557	531	6.400086846278	1599355
557	610	6.880296332286	1599355
557	852	7.519786069522	1599355
557	1033	8.1713187651	1599355
558	514	6.398326846278	1599128
558	531	6.400086846278	1599129
558	610	6.880296332286	1599130
558	852	7.519786069522	1599132
558	1033	8.1713187651	1599133
559	514	6.398326846278	7504
559	531	6.400086846278	7503
559	610	6.880296332286	7504
559	852	7.519786069522	7504
559	1033	8.1713187651	7504
560	514	6.398326846278	1
560	531	6.400086846278	0
560	597	6.878536332286	1
560	610	6.880296332286	0
560	797	7.518018069522	2
560	852	7.519786069522	0
560	1020	8.1695587651	1
560	1033	8.1713187651	0
561	521	6.399210846278	1599128
561	603	6.879420332286	1599129
561	824	7.518910069522	1599130
561	1026	8.1704427651	1599132
562	521	6.399210846278	1599355
562	603	6.879420332286	1599355
562	824	7.518910069522	1599355
562	1026	8.1704427651	1599355
563	521	6.399210846278	0
564	521	6.399210846278	1072
565	521	6.399210846278	4294967295
566	521	6.399210846278	0
566	603	6.879420332286	0
566	824	7.518910069522	0
566	1026	8.1704427651	0
567	531	6.400086846278	0.00176
567	610	6.880296332286	0.00176
567	852	7.519786069522	0.001768
567	1033	8.1713187651	0.00176
568	531	6.400086846278	0.00022
568	610	6.880296332286	0.0004125
568	852	7.519786069522	0.0005819375
568	1033	8.1713187651	0.000729195313
569	531	6.400086846278	0.65647
569	610	6.880296332286	0.57460375
569	852	7.519786069522	0.50294771875
569	1033	8.1713187651	0.440226511719
570	531	6.400086846278	2.6261
570	610	6.880296332286	2.2988275
570	852	7.519786069522	2.0123728125
570	1033	8.1713187651	1.761635242189
571	531	6.400086846278	1072
571	610	6.880296332286	1608
571	852	7.519786069522	2144
571	1033	8.1713187651	2680
572	531	6.400086846278	4294967295
572	610	6.880296332286	4294967295
572	852	7.519786069522	4294967295
572	1033	8.1713187651	4294967295
573	531	6.400086846278	0
573	610	6.880296332286	0
573	852	7.519786069522	0
573	1033	8.1713187651	0
574	533	6.43858149968	0
574	546	6.44039749968	0
574	627	7.096834193793	0
574	672	7.277121400434	0
574	913	7.88793292288	0
575	533	6.43858149968	7504
575	546	6.44039749968	1617377
575	546	6.44039749968	1617377
575	627	7.096834193793	1617377
575	672	7.277121400434	1617377
575	913	7.88793292288	1617377
576	533	6.43858149968	7504
576	546	6.44039749968	7504
576	627	7.096834193793	7504
576	672	7.277121400434	7504
576	913	7.88793292288	7504
577	533	6.43858149968	0
577	546	6.44039749968	1609873
577	627	7.096834193793	1609873
577	672	7.277121400434	1609873
577	913	7.88793292288	1609873
578	536	6.43858149968	44
578	549	6.44039749968	41
578	574	6.787034285592	44
578	589	6.788826285592	40
578	629	7.096834193793	41
578	651	7.183917872494	40
578	674	7.277121400434	41
578	728	7.279273400434	40
578	917	7.88793292288	40
578	922	7.88793292288	42
579	536	6.43858149968	44
579	549	6.44039749968	41
579	574	6.787034285592	44
579	589	6.788826285592	40
579	629	7.096834193793	41
579	651	7.183917872494	40
579	674	7.277121400434	41
579	728	7.279273400434	40
579	917	7.88793292288	40
579	922	7.88793292288	42
580	536	6.43858149968	1
580	536	6.43858149968	0
580	549	6.44039749968	1
580	549	6.44039749968	0
580	574	6.787034285592	1
580	574	6.787034285592	0
580	589	6.788826285592	1
580	589	6.788826285592	0
580	629	7.096834193793	1
580	629	7.096834193793	0
580	651	7.183917872494	1
580	651	7.183917872494	0
580	674	7.277121400434	1
580	674	7.277121400434	0
580	728	7.279273400434	1
580	728	7.279273400434	0
580	917	7.88793292288	1
580	917	7.88793292288	0
580	922	7.88793292288	1
580	926	7.88830892288	0
581	536	6.43858149968	44
581	549	6.44039749968	41
581	574	6.787034285592	44
581	589	6.788826285592	40
581	629	7.096834193793	41
581	651	7.183917872494	40
581	674	7.277121400434	41
581	728	7.279273400434	40
581	917	7.88793292288	40
581	926	7.88830892288	42
582	536	6.43858149968	0
582	549	6.44039749968	0
582	574	6.787034285592	0
582	589	6.788826285592	0
582	629	7.096834193793	0
582	651	7.183917872494	0
582	674	7.277121400434	0
582	728	7.279273400434	0
582	917	7.88793292288	0
582	926	7.88830892288	0.000376
583	536	6.43858149968	51
583	549	6.44039749968	48
583	574	6.787034285592	51
583	589	6.788826285592	47
583	629	7.096834193793	48
583	651	7.183917872494	47
583	674	7.277121400434	48
583	728	7.279273400434	47
583	917	7.88793292288	47
583	926	7.88830892288	49
584	538	6.43948949968	51
584	551	6.44128149968	48
584	576	6.787942285592	51
584	593	6.789702285592	47
584	631	7.097718193793	48
584	653	7.184793872494	47
584	676	7.278005400434	48
584	739	7.280149400434	47
584	931	7.88880892288	47
584	952	7.88920092288	49
585	538	6.43948949968	44
585	551	6.44128149968	41
585	576	6.787942285592	44
585	593	6.789702285592	40
585	631	7.097718193793	41
585	653	7.184793872494	40
585	676	7.278005400434	41
585	739	7.280149400434	40
585	931	7.88880892288	40
585	952	7.88920092288	42
586	540	6.43948949968	1617150
586	540	6.43948949968	1617150
586	553	6.44128149968	1617150
586	633	7.097718193793	1617152
586	678	7.278005400434	1617153
586	957	7.88920092288	1617155
587	540	6.43948949968	7504
587	553	6.44128149968	7504
588	540	6.43948949968	0
588	553	6.44128149968	0
588	553	6.44128149968	1
588	633	7.097718193793	0
588	633	7.097718193793	0
588	678	7.278005400434	0
588	678	7.278005400434	0
588	957	7.88920092288	0
588	957	7.88920092288	0
589	540	6.43948949968	7504
589	553	6.44128149968	7503
589	633	7.097718193793	7504
589	678	7.278005400434	7504
589	957	7.88920092288	7504
590	540	6.43948949968	1609646
590	553	6.44128149968	1609647
590	633	7.097718193793	1609648
590	678	7.278005400434	1609649
590	957	7.88920092288	1609651
591	542	6.43948949968	44
591	557	6.44128149968	40
591	568	6.786126285592	44
591	581	6.787942285592	41
591	636	7.097718193793	40
591	644	7.183033872494	41
591	685	7.278005400434	40
591	690	7.278005400434	42
591	906	7.88704892288	41
591	960	7.88920092288	40
592	542	6.43948949968	44
592	557	6.44128149968	40
592	568	6.786126285592	44
592	581	6.787942285592	41
592	636	7.097718193793	40
592	644	7.183033872494	41
592	685	7.278005400434	40
592	690	7.278005400434	42
592	906	7.88704892288	41
592	960	7.88920092288	40
593	542	6.43948949968	1
593	542	6.43948949968	0
593	557	6.44128149968	1
593	557	6.44128149968	0
593	568	6.786126285592	1
593	568	6.786126285592	0
593	581	6.787942285592	1
593	581	6.787942285592	0
593	636	7.097718193793	1
593	636	7.097718193793	0
593	644	7.183033872494	1
593	644	7.183033872494	0
593	685	7.278005400434	1
593	685	7.278005400434	0
593	690	7.278005400434	1
593	694	7.278381400434	0
593	906	7.88704892288	1
593	906	7.88704892288	0
593	960	7.88920092288	1
593	960	7.88920092288	0
594	542	6.43948949968	44
594	557	6.44128149968	40
594	568	6.786126285592	44
594	581	6.787942285592	41
594	636	7.097718193793	40
594	644	7.183033872494	41
594	685	7.278005400434	40
594	694	7.278381400434	42
594	906	7.88704892288	41
594	960	7.88920092288	40
595	542	6.43948949968	0
595	557	6.44128149968	0
595	568	6.786126285592	0
595	581	6.787942285592	0
595	636	7.097718193793	0
595	644	7.183033872494	0
595	685	7.278005400434	0
595	694	7.278381400434	0.000376
595	906	7.88704892288	0
595	960	7.88920092288	0
596	542	6.43948949968	51
596	557	6.44128149968	47
596	568	6.786126285592	51
596	581	6.787942285592	48
596	636	7.097718193793	47
596	644	7.183033872494	48
596	685	7.278005400434	47
596	694	7.278381400434	49
596	906	7.88704892288	48
596	960	7.88920092288	47
597	544	6.44039749968	51
597	561	6.44215749968	47
597	570	6.787034285592	51
597	583	6.788826285592	48
597	638	7.098594193793	47
597	646	7.183917872494	48
597	699	7.278881400434	47
597	720	7.279273400434	49
597	908	7.88793292288	48
597	971	7.89007692288	47
598	544	6.44039749968	44
598	561	6.44215749968	40
598	570	6.787034285592	44
598	583	6.788826285592	41
598	638	7.098594193793	40
598	646	7.183917872494	41
598	699	7.278881400434	40
598	720	7.279273400434	42
598	908	7.88793292288	41
598	971	7.89007692288	40
599	546	6.44039749968	1609872
599	563	6.44215749968	1609873
599	640	7.098594193793	1609873
599	701	7.278881400434	1609873
599	973	7.89007692288	1609873
600	546	6.44039749968	1609646
600	563	6.44215749968	1609647
600	640	7.098594193793	1609648
600	701	7.278881400434	1609649
600	973	7.89007692288	1609651
601	546	6.44039749968	7504
601	563	6.44215749968	7503
601	640	7.098594193793	7504
601	701	7.278881400434	7504
601	973	7.89007692288	7504
602	546	6.44039749968	1
602	563	6.44215749968	0
602	627	7.096834193793	1
602	640	7.098594193793	0
602	672	7.277121400434	1
602	701	7.278881400434	0
602	913	7.88793292288	2
602	973	7.89007692288	0
603	553	6.44128149968	1609646
603	633	7.097718193793	1609647
603	678	7.278005400434	1609648
603	957	7.88920092288	1609649
604	553	6.44128149968	1609873
604	633	7.097718193793	1609873
604	678	7.278005400434	1609873
604	957	7.88920092288	1609873
605	553	6.44128149968	0
606	553	6.44128149968	1072
607	553	6.44128149968	4294967295
608	553	6.44128149968	0
608	633	7.097718193793	0
608	678	7.278005400434	0
608	957	7.88920092288	0
609	563	6.44215749968	0.00176
609	640	7.098594193793	0.00176
609	701	7.278881400434	0.00176
609	973	7.89007692288	0.002144
610	563	6.44215749968	0.00022
610	640	7.098594193793	0.0004125
610	701	7.278881400434	0.0005809375
610	973	7.89007692288	0.000776320313
611	563	6.44215749968	0.65647
611	640	7.098594193793	0.57460375
611	701	7.278881400434	0.50294671875
611	973	7.89007692288	0.440273761719
612	563	6.44215749968	2.6261
612	640	7.098594193793	2.2988275
612	701	7.278881400434	2.0123678125
612	973	7.89007692288	1.761871367189
613	563	6.44215749968	1072
613	640	7.098594193793	1608
613	701	7.278881400434	2144
613	973	7.89007692288	2680
614	563	6.44215749968	4294967295
614	640	7.098594193793	4294967295
614	701	7.278881400434	4294967295
614	973	7.89007692288	4294967295
615	563	6.44215749968	0
615	640	7.098594193793	0
615	701	7.278881400434	0
615	973	7.89007692288	0
616	565	6.786126285592	0
616	578	6.787942285592	0
616	642	7.183033872494	0
616	681	7.278005400434	0
616	904	7.88704892288	0
617	565	6.786126285592	7504
617	578	6.787942285592	1704263
617	578	6.787942285592	1704263
617	642	7.183033872494	1704263
617	681	7.278005400434	1704263
617	904	7.88704892288	1704263
618	565	6.786126285592	7504
618	578	6.787942285592	7504
618	642	7.183033872494	7504
618	681	7.278005400434	7504
618	904	7.88704892288	7504
619	565	6.786126285592	0
619	578	6.787942285592	1696759
619	642	7.183033872494	1696759
619	681	7.278005400434	1696759
619	904	7.88704892288	1696759
620	572	6.787034285592	1704036
620	572	6.787034285592	1704036
620	585	6.788826285592	1704036
620	648	7.183917872494	1704038
620	725	7.279273400434	1704040
620	910	7.88793292288	1704041
621	572	6.787034285592	7504
621	585	6.788826285592	7504
622	572	6.787034285592	0
622	585	6.788826285592	0
622	585	6.788826285592	1
622	648	7.183917872494	0
622	648	7.183917872494	0
622	725	7.279273400434	0
622	725	7.279273400434	0
622	910	7.88793292288	0
622	910	7.88793292288	0
623	572	6.787034285592	7504
623	585	6.788826285592	7503
623	648	7.183917872494	7504
623	725	7.279273400434	7504
623	910	7.88793292288	7504
624	572	6.787034285592	1696532
624	585	6.788826285592	1696533
624	648	7.183917872494	1696534
624	725	7.279273400434	1696536
624	910	7.88793292288	1696537
625	578	6.787942285592	1696758
625	595	6.789702285592	1696759
625	655	7.184793872494	1696759
625	741	7.280149400434	1696759
625	933	7.88880892288	1696759
626	578	6.787942285592	1696532
626	595	6.789702285592	1696533
626	655	7.184793872494	1696534
626	741	7.280149400434	1696536
626	933	7.88880892288	1696537
627	578	6.787942285592	7504
627	595	6.789702285592	7503
627	655	7.184793872494	7504
627	741	7.280149400434	7504
627	933	7.88880892288	7504
628	578	6.787942285592	1
628	595	6.789702285592	0
628	642	7.183033872494	1
628	655	7.184793872494	0
628	681	7.278005400434	2
628	741	7.280149400434	0
628	904	7.88704892288	1
628	933	7.88880892288	0
629	585	6.788826285592	1696532
629	648	7.183917872494	1696533
629	725	7.279273400434	1696534
629	910	7.88793292288	1696536
630	585	6.788826285592	1696759
630	648	7.183917872494	1696759
630	725	7.279273400434	1696759
630	910	7.88793292288	1696759
631	585	6.788826285592	0
632	585	6.788826285592	1072
633	585	6.788826285592	4294967295
634	585	6.788826285592	0
634	648	7.183917872494	0
634	725	7.279273400434	0
634	910	7.88793292288	0
635	595	6.789702285592	0.00176
635	655	7.184793872494	0.00176
635	741	7.280149400434	0.002144
635	933	7.88880892288	0.00176
636	595	6.789702285592	0.00022
636	655	7.184793872494	0.0004125
636	741	7.280149400434	0.0006289375
636	933	7.88880892288	0.000770320313
637	595	6.789702285592	0.65647
637	655	7.184793872494	0.57460375
637	741	7.280149400434	0.50299471875
637	933	7.88880892288	0.440261761719
638	595	6.789702285592	2.6261
638	655	7.184793872494	2.2988275
638	741	7.280149400434	2.0126078125
638	933	7.88880892288	1.761817367189
639	595	6.789702285592	1072
639	655	7.184793872494	1608
639	741	7.280149400434	2144
639	933	7.88880892288	2680
640	595	6.789702285592	4294967295
640	655	7.184793872494	4294967295
640	741	7.280149400434	4294967295
640	933	7.88880892288	4294967295
641	595	6.789702285592	0
641	655	7.184793872494	0
641	741	7.280149400434	0
641	933	7.88880892288	0

