version 2
run JOIN_after_BROADCAST-0-20211125-17:07:35-11884
attr configname JOIN_after_BROADCAST
attr datetime 20211125-17:07:35
attr experiment JOIN_after_BROADCAST
attr inifile omnetpp.ini
attr iterationvars ""
attr iterationvarsf ""
attr measurement ""
attr network scenario
attr processid 11884
attr repetition 0
attr replication #0
attr resultdir results
attr runnumber 0
attr seedset 0
param **.client3.app[0].join 3.0
param **.client3.app[0].broadcast 0.0
param **.ppp[*].ppp.queue.typename "\"DropTailQueue\""
param **.tcp.typename "\"Tcp\""
param **.tcp.nagleEnabled false
param **.cli*.app[*].nPar 5
param **.cli*.app[*].fPar 0
param **.numApps 1
param **.client0.app[*].typename "\"Node\""
param **.client0.app[0].localPort 1000
param **.client0.app[0].localPortL 1234
param **.client0.app[0].connectAddress "\"\""
param **.client0.app[0].connectPort 1234
param **.client1.app[*].typename "\"Node\""
param **.client1.app[0].localPort 1001
param **.client1.app[0].localPortL 1234
param **.client1.app[0].connectAddress "\"\""
param **.client1.app[0].connectPort 1234
param **.client2.app[*].typename "\"Node\""
param **.client2.app[0].localPort 1002
param **.client2.app[0].localPortL 1234
param **.client2.app[0].connectAddress "\"\""
param **.client2.app[0].connectPort 1234
param **.client3.app[*].typename "\"Node\""
param **.client3.app[0].localPort 1003
param **.client3.app[0].localPortL 1234
param **.client3.app[0].connectAddress "\"\""
param **.client3.app[0].connectPort 1234
param **.client4.app[*].typename "\"Node\""
param **.client4.app[0].localPort 1004
param **.client4.app[0].localPortL 1234
param **.client4.app[0].connectAddress "\"\""
param **.client4.app[0].connectPort 1234

vector 0 scenario.client0.ppp[0].ppp transmissionState:vector ETV
attr interpolationmode sample-hold
attr source transmissionStateChanged
attr title "tx state, vector"
vector 1 scenario.client0.ppp[1].ppp transmissionState:vector ETV
attr interpolationmode sample-hold
attr source transmissionStateChanged
attr title "tx state, vector"
vector 2 scenario.client0.ppp[2].ppp transmissionState:vector ETV
attr interpolationmode sample-hold
attr source transmissionStateChanged
attr title "tx state, vector"
vector 3 scenario.client0.ppp[3].ppp transmissionState:vector ETV
attr interpolationmode sample-hold
attr source transmissionStateChanged
attr title "tx state, vector"
vector 4 scenario.client1.ppp[0].ppp transmissionState:vector ETV
attr interpolationmode sample-hold
attr source transmissionStateChanged
attr title "tx state, vector"
vector 5 scenario.client1.ppp[1].ppp transmissionState:vector ETV
attr interpolationmode sample-hold
attr source transmissionStateChanged
attr title "tx state, vector"
vector 6 scenario.client1.ppp[2].ppp transmissionState:vector ETV
attr interpolationmode sample-hold
attr source transmissionStateChanged
attr title "tx state, vector"
vector 7 scenario.client1.ppp[3].ppp transmissionState:vector ETV
attr interpolationmode sample-hold
attr source transmissionStateChanged
attr title "tx state, vector"
vector 8 scenario.client2.ppp[0].ppp transmissionState:vector ETV
attr interpolationmode sample-hold
attr source transmissionStateChanged
attr title "tx state, vector"
vector 9 scenario.client2.ppp[1].ppp transmissionState:vector ETV
attr interpolationmode sample-hold
attr source transmissionStateChanged
attr title "tx state, vector"
vector 10 scenario.client2.ppp[2].ppp transmissionState:vector ETV
attr interpolationmode sample-hold
attr source transmissionStateChanged
attr title "tx state, vector"
vector 11 scenario.client2.ppp[3].ppp transmissionState:vector ETV
attr interpolationmode sample-hold
attr source transmissionStateChanged
attr title "tx state, vector"
vector 12 scenario.client3.ppp[0].ppp transmissionState:vector ETV
attr interpolationmode sample-hold
attr source transmissionStateChanged
attr title "tx state, vector"
vector 13 scenario.client3.ppp[1].ppp transmissionState:vector ETV
attr interpolationmode sample-hold
attr source transmissionStateChanged
attr title "tx state, vector"
vector 14 scenario.client3.ppp[2].ppp transmissionState:vector ETV
attr interpolationmode sample-hold
attr source transmissionStateChanged
attr title "tx state, vector"
vector 15 scenario.client3.ppp[3].ppp transmissionState:vector ETV
attr interpolationmode sample-hold
attr source transmissionStateChanged
attr title "tx state, vector"
vector 16 scenario.client4.ppp[0].ppp transmissionState:vector ETV
attr interpolationmode sample-hold
attr source transmissionStateChanged
attr title "tx state, vector"
vector 17 scenario.client4.ppp[1].ppp transmissionState:vector ETV
attr interpolationmode sample-hold
attr source transmissionStateChanged
attr title "tx state, vector"
vector 18 scenario.client4.ppp[2].ppp transmissionState:vector ETV
attr interpolationmode sample-hold
attr source transmissionStateChanged
attr title "tx state, vector"
vector 19 scenario.client4.ppp[3].ppp transmissionState:vector ETV
attr interpolationmode sample-hold
attr source transmissionStateChanged
attr title "tx state, vector"
vector 20 scenario.client3.tcp.conn-30 tcpRcvQueueBytes:vector ETV
attr interpolationmode sample-hold
vector 21 scenario.client3.tcp.conn-30 rcvAdv:vector ETV
attr interpolationmode sample-hold
vector 22 scenario.client3.tcp.conn-30 rcvWnd:vector ETV
attr interpolationmode sample-hold
vector 23 scenario.client3.tcp.conn-30 sndAck:vector ETV
attr interpolationmode sample-hold
vector 24 scenario.client3.ppp[2].ppp rcvdPkFromHl:vector(packetBytes) ETV
attr interpolationmode none
attr source packetReceivedFromUpper
attr title "packets received from higher layer, vector(packetBytes)"
vector 25 scenario.client3.ppp[2].ppp.queue packetPushed:vector(packetBytes) ETV
attr interpolationmode none
attr title "packet pushed, vector(packetBytes)"
vector 26 scenario.client3.ppp[2].ppp.queue queueLength:vector ETV
attr interpolationmode sample-hold
attr source "count(packetPushed) - count(packetPopped) - count(packetRemoved) - count(packetDropped)"
attr title "queue length, vector"
vector 27 scenario.client3.ppp[2].ppp.queue packetPopped:vector(packetBytes) ETV
attr interpolationmode none
attr title "packet popped, vector(packetBytes)"
vector 28 scenario.client3.ppp[2].ppp.queue queueingTime:vector ETV
attr interpolationmode none
attr source queueingTime(packetPopped)
attr title "queueing times, vector"
attr unit s
vector 29 scenario.client3.ppp[2].ppp txPk:vector(packetBytes) ETV
attr interpolationmode none
attr source packetSentToLower
attr title "packets transmitted, vector(packetBytes)"
vector 30 scenario.client2.ppp[2].ppp rxPkOk:vector(packetBytes) ETV
attr interpolationmode none
attr source rxPkOk
attr title "packets received OK, vector(packetBytes)"
vector 31 scenario.client2.ppp[2].ppp passedUpPk:vector(packetBytes) ETV
attr interpolationmode none
attr source packetSentToUpper
attr title "packets passed to higher layer, vector(packetBytes)"
vector 32 scenario.client2.tcp.conn-27 rcvSeq:vector ETV
attr interpolationmode sample-hold
vector 33 scenario.client2.tcp.conn-27 rcvAck:vector ETV
attr interpolationmode sample-hold
vector 34 scenario.client2.tcp.conn-31 rcvAdv:vector ETV
attr interpolationmode sample-hold
vector 35 scenario.client2.tcp.conn-31 sndWnd:vector ETV
attr interpolationmode sample-hold
vector 36 scenario.client2.tcp.conn-31 tcpRcvQueueBytes:vector ETV
attr interpolationmode sample-hold
vector 37 scenario.client2.tcp.conn-31 rcvWnd:vector ETV
attr interpolationmode sample-hold
vector 38 scenario.client2.tcp.conn-31 sndAck:vector ETV
attr interpolationmode sample-hold
vector 39 scenario.client2.ppp[2].ppp rcvdPkFromHl:vector(packetBytes) ETV
attr interpolationmode none
attr source packetReceivedFromUpper
attr title "packets received from higher layer, vector(packetBytes)"
vector 40 scenario.client2.ppp[2].ppp.queue packetPushed:vector(packetBytes) ETV
attr interpolationmode none
attr title "packet pushed, vector(packetBytes)"
vector 41 scenario.client2.ppp[2].ppp.queue queueLength:vector ETV
attr interpolationmode sample-hold
attr source "count(packetPushed) - count(packetPopped) - count(packetRemoved) - count(packetDropped)"
attr title "queue length, vector"
vector 42 scenario.client2.ppp[2].ppp.queue packetPopped:vector(packetBytes) ETV
attr interpolationmode none
attr title "packet popped, vector(packetBytes)"
vector 43 scenario.client2.ppp[2].ppp.queue queueingTime:vector ETV
attr interpolationmode none
attr source queueingTime(packetPopped)
attr title "queueing times, vector"
attr unit s
vector 44 scenario.client2.ppp[2].ppp txPk:vector(packetBytes) ETV
attr interpolationmode none
attr source packetSentToLower
attr title "packets transmitted, vector(packetBytes)"
vector 45 scenario.client3.ppp[2].ppp rxPkOk:vector(packetBytes) ETV
attr interpolationmode none
attr source rxPkOk
attr title "packets received OK, vector(packetBytes)"
vector 46 scenario.client3.ppp[2].ppp passedUpPk:vector(packetBytes) ETV
attr interpolationmode none
attr source packetSentToUpper
attr title "packets passed to higher layer, vector(packetBytes)"
vector 47 scenario.client3.tcp.conn-30 rcvSeq:vector ETV
attr interpolationmode sample-hold
vector 48 scenario.client3.tcp.conn-30 rcvAck:vector ETV
attr interpolationmode sample-hold
vector 49 scenario.client3.tcp.conn-30 sndWnd:vector ETV
attr interpolationmode sample-hold
vector 50 scenario.client3.tcp.conn-30 unacked:vector ETV
attr interpolationmode sample-hold
vector 51 scenario.client2.tcp.conn-31 rcvSeq:vector ETV
attr interpolationmode sample-hold
vector 52 scenario.client2.tcp.conn-31 rcvAck:vector ETV
attr interpolationmode sample-hold
vector 53 scenario.client2.tcp.conn-31 unacked:vector ETV
attr interpolationmode sample-hold
vector 54 scenario.client2.tcp.conn-31 cwnd:vector ETV
attr interpolationmode sample-hold
vector 55 scenario.client2.tcp.conn-31 ssthresh:vector ETV
attr interpolationmode sample-hold
vector 56 scenario.client2.tcp.conn-31 dupAcks:vector ETV
attr interpolationmode sample-hold
vector 57 scenario.client3.tcp.conn-30 rtt:vector ETV
attr interpolationmode sample-hold
vector 58 scenario.client3.tcp.conn-30 srtt:vector ETV
attr interpolationmode sample-hold
vector 59 scenario.client3.tcp.conn-30 rttvar:vector ETV
attr interpolationmode sample-hold
vector 60 scenario.client3.tcp.conn-30 rto:vector ETV
attr interpolationmode sample-hold
vector 61 scenario.client3.tcp.conn-30 cwnd:vector ETV
attr interpolationmode sample-hold
vector 62 scenario.client3.tcp.conn-30 ssthresh:vector ETV
attr interpolationmode sample-hold
vector 63 scenario.client3.tcp.conn-30 dupAcks:vector ETV
attr interpolationmode sample-hold
vector 64 scenario.client3.tcp.conn-32 tcpRcvQueueBytes:vector ETV
attr interpolationmode sample-hold
vector 65 scenario.client3.tcp.conn-32 rcvAdv:vector ETV
attr interpolationmode sample-hold
vector 66 scenario.client3.tcp.conn-32 rcvWnd:vector ETV
attr interpolationmode sample-hold
vector 67 scenario.client3.tcp.conn-32 sndAck:vector ETV
attr interpolationmode sample-hold
vector 68 scenario.client3.ppp[0].ppp rcvdPkFromHl:vector(packetBytes) ETV
attr interpolationmode none
attr source packetReceivedFromUpper
attr title "packets received from higher layer, vector(packetBytes)"
vector 69 scenario.client3.ppp[0].ppp.queue packetPushed:vector(packetBytes) ETV
attr interpolationmode none
attr title "packet pushed, vector(packetBytes)"
vector 70 scenario.client3.ppp[0].ppp.queue queueLength:vector ETV
attr interpolationmode sample-hold
attr source "count(packetPushed) - count(packetPopped) - count(packetRemoved) - count(packetDropped)"
attr title "queue length, vector"
vector 71 scenario.client3.ppp[0].ppp.queue packetPopped:vector(packetBytes) ETV
attr interpolationmode none
attr title "packet popped, vector(packetBytes)"
vector 72 scenario.client3.ppp[0].ppp.queue queueingTime:vector ETV
attr interpolationmode none
attr source queueingTime(packetPopped)
attr title "queueing times, vector"
attr unit s
vector 73 scenario.client3.ppp[0].ppp txPk:vector(packetBytes) ETV
attr interpolationmode none
attr source packetSentToLower
attr title "packets transmitted, vector(packetBytes)"
vector 74 scenario.client0.ppp[2].ppp rxPkOk:vector(packetBytes) ETV
attr interpolationmode none
attr source rxPkOk
attr title "packets received OK, vector(packetBytes)"
vector 75 scenario.client0.ppp[2].ppp passedUpPk:vector(packetBytes) ETV
attr interpolationmode none
attr source packetSentToUpper
attr title "packets passed to higher layer, vector(packetBytes)"
vector 76 scenario.client0.tcp.conn-25 rcvSeq:vector ETV
attr interpolationmode sample-hold
vector 77 scenario.client0.tcp.conn-25 rcvAck:vector ETV
attr interpolationmode sample-hold
vector 78 scenario.client0.tcp.conn-33 rcvAdv:vector ETV
attr interpolationmode sample-hold
vector 79 scenario.client0.tcp.conn-33 sndWnd:vector ETV
attr interpolationmode sample-hold
vector 80 scenario.client0.tcp.conn-33 tcpRcvQueueBytes:vector ETV
attr interpolationmode sample-hold
vector 81 scenario.client0.tcp.conn-33 rcvWnd:vector ETV
attr interpolationmode sample-hold
vector 82 scenario.client0.tcp.conn-33 sndAck:vector ETV
attr interpolationmode sample-hold
vector 83 scenario.client0.ppp[2].ppp rcvdPkFromHl:vector(packetBytes) ETV
attr interpolationmode none
attr source packetReceivedFromUpper
attr title "packets received from higher layer, vector(packetBytes)"
vector 84 scenario.client0.ppp[2].ppp.queue packetPushed:vector(packetBytes) ETV
attr interpolationmode none
attr title "packet pushed, vector(packetBytes)"
vector 85 scenario.client0.ppp[2].ppp.queue queueLength:vector ETV
attr interpolationmode sample-hold
attr source "count(packetPushed) - count(packetPopped) - count(packetRemoved) - count(packetDropped)"
attr title "queue length, vector"
vector 86 scenario.client0.ppp[2].ppp.queue packetPopped:vector(packetBytes) ETV
attr interpolationmode none
attr title "packet popped, vector(packetBytes)"
vector 87 scenario.client0.ppp[2].ppp.queue queueingTime:vector ETV
attr interpolationmode none
attr source queueingTime(packetPopped)
attr title "queueing times, vector"
attr unit s
vector 88 scenario.client0.ppp[2].ppp txPk:vector(packetBytes) ETV
attr interpolationmode none
attr source packetSentToLower
attr title "packets transmitted, vector(packetBytes)"
vector 89 scenario.client3.ppp[0].ppp rxPkOk:vector(packetBytes) ETV
attr interpolationmode none
attr source rxPkOk
attr title "packets received OK, vector(packetBytes)"
vector 90 scenario.client3.ppp[0].ppp passedUpPk:vector(packetBytes) ETV
attr interpolationmode none
attr source packetSentToUpper
attr title "packets passed to higher layer, vector(packetBytes)"
vector 91 scenario.client3.tcp.conn-32 rcvSeq:vector ETV
attr interpolationmode sample-hold
vector 92 scenario.client3.tcp.conn-32 rcvAck:vector ETV
attr interpolationmode sample-hold
vector 93 scenario.client3.tcp.conn-32 sndWnd:vector ETV
attr interpolationmode sample-hold
vector 94 scenario.client3.tcp.conn-32 unacked:vector ETV
attr interpolationmode sample-hold
vector 95 scenario.client0.tcp.conn-33 rcvSeq:vector ETV
attr interpolationmode sample-hold
vector 96 scenario.client0.tcp.conn-33 rcvAck:vector ETV
attr interpolationmode sample-hold
vector 97 scenario.client0.tcp.conn-33 unacked:vector ETV
attr interpolationmode sample-hold
vector 98 scenario.client0.tcp.conn-33 cwnd:vector ETV
attr interpolationmode sample-hold
vector 99 scenario.client0.tcp.conn-33 ssthresh:vector ETV
attr interpolationmode sample-hold
vector 100 scenario.client0.tcp.conn-33 dupAcks:vector ETV
attr interpolationmode sample-hold
vector 101 scenario.client3.tcp.conn-32 rtt:vector ETV
attr interpolationmode sample-hold
vector 102 scenario.client3.tcp.conn-32 srtt:vector ETV
attr interpolationmode sample-hold
vector 103 scenario.client3.tcp.conn-32 rttvar:vector ETV
attr interpolationmode sample-hold
vector 104 scenario.client3.tcp.conn-32 rto:vector ETV
attr interpolationmode sample-hold
vector 105 scenario.client3.tcp.conn-32 cwnd:vector ETV
attr interpolationmode sample-hold
vector 106 scenario.client3.tcp.conn-32 ssthresh:vector ETV
attr interpolationmode sample-hold
vector 107 scenario.client3.tcp.conn-32 dupAcks:vector ETV
attr interpolationmode sample-hold
vector 108 scenario.client2.tcp.conn-34 tcpRcvQueueBytes:vector ETV
attr interpolationmode sample-hold
vector 109 scenario.client2.tcp.conn-34 rcvAdv:vector ETV
attr interpolationmode sample-hold
vector 110 scenario.client2.tcp.conn-34 rcvWnd:vector ETV
attr interpolationmode sample-hold
vector 111 scenario.client2.tcp.conn-34 sndAck:vector ETV
attr interpolationmode sample-hold
vector 112 scenario.client3.tcp.conn-28 rcvSeq:vector ETV
attr interpolationmode sample-hold
vector 113 scenario.client3.tcp.conn-28 rcvAck:vector ETV
attr interpolationmode sample-hold
vector 114 scenario.client3.tcp.conn-35 rcvAdv:vector ETV
attr interpolationmode sample-hold
vector 115 scenario.client3.tcp.conn-35 sndWnd:vector ETV
attr interpolationmode sample-hold
vector 116 scenario.client3.tcp.conn-35 tcpRcvQueueBytes:vector ETV
attr interpolationmode sample-hold
vector 117 scenario.client3.tcp.conn-35 rcvWnd:vector ETV
attr interpolationmode sample-hold
vector 118 scenario.client3.tcp.conn-35 sndAck:vector ETV
attr interpolationmode sample-hold
vector 119 scenario.client2.tcp.conn-34 rcvSeq:vector ETV
attr interpolationmode sample-hold
vector 120 scenario.client2.tcp.conn-34 rcvAck:vector ETV
attr interpolationmode sample-hold
vector 121 scenario.client2.tcp.conn-34 sndWnd:vector ETV
attr interpolationmode sample-hold
vector 122 scenario.client2.tcp.conn-34 unacked:vector ETV
attr interpolationmode sample-hold
vector 123 scenario.client3.tcp.conn-35 rcvSeq:vector ETV
attr interpolationmode sample-hold
vector 124 scenario.client3.tcp.conn-35 rcvAck:vector ETV
attr interpolationmode sample-hold
vector 125 scenario.client3.tcp.conn-35 unacked:vector ETV
attr interpolationmode sample-hold
vector 126 scenario.client3.tcp.conn-35 cwnd:vector ETV
attr interpolationmode sample-hold
vector 127 scenario.client3.tcp.conn-35 ssthresh:vector ETV
attr interpolationmode sample-hold
vector 128 scenario.client3.tcp.conn-35 dupAcks:vector ETV
attr interpolationmode sample-hold
vector 129 scenario.client2.tcp.conn-34 rtt:vector ETV
attr interpolationmode sample-hold
vector 130 scenario.client2.tcp.conn-34 srtt:vector ETV
attr interpolationmode sample-hold
vector 131 scenario.client2.tcp.conn-34 rttvar:vector ETV
attr interpolationmode sample-hold
vector 132 scenario.client2.tcp.conn-34 rto:vector ETV
attr interpolationmode sample-hold
vector 133 scenario.client2.tcp.conn-34 cwnd:vector ETV
attr interpolationmode sample-hold
vector 134 scenario.client2.tcp.conn-34 ssthresh:vector ETV
attr interpolationmode sample-hold
vector 135 scenario.client2.tcp.conn-34 dupAcks:vector ETV
attr interpolationmode sample-hold
vector 136 scenario.client3.tcp.conn-36 tcpRcvQueueBytes:vector ETV
attr interpolationmode sample-hold
vector 137 scenario.client3.tcp.conn-36 rcvAdv:vector ETV
attr interpolationmode sample-hold
vector 138 scenario.client3.tcp.conn-36 rcvWnd:vector ETV
attr interpolationmode sample-hold
vector 139 scenario.client3.tcp.conn-36 sndAck:vector ETV
attr interpolationmode sample-hold
vector 140 scenario.client3.ppp[1].ppp rcvdPkFromHl:vector(packetBytes) ETV
attr interpolationmode none
attr source packetReceivedFromUpper
attr title "packets received from higher layer, vector(packetBytes)"
vector 141 scenario.client3.ppp[1].ppp.queue packetPushed:vector(packetBytes) ETV
attr interpolationmode none
attr title "packet pushed, vector(packetBytes)"
vector 142 scenario.client3.ppp[1].ppp.queue queueLength:vector ETV
attr interpolationmode sample-hold
attr source "count(packetPushed) - count(packetPopped) - count(packetRemoved) - count(packetDropped)"
attr title "queue length, vector"
vector 143 scenario.client3.ppp[1].ppp.queue packetPopped:vector(packetBytes) ETV
attr interpolationmode none
attr title "packet popped, vector(packetBytes)"
vector 144 scenario.client3.ppp[1].ppp.queue queueingTime:vector ETV
attr interpolationmode none
attr source queueingTime(packetPopped)
attr title "queueing times, vector"
attr unit s
vector 145 scenario.client3.ppp[1].ppp txPk:vector(packetBytes) ETV
attr interpolationmode none
attr source packetSentToLower
attr title "packets transmitted, vector(packetBytes)"
vector 146 scenario.client1.ppp[2].ppp rxPkOk:vector(packetBytes) ETV
attr interpolationmode none
attr source rxPkOk
attr title "packets received OK, vector(packetBytes)"
vector 147 scenario.client1.ppp[2].ppp passedUpPk:vector(packetBytes) ETV
attr interpolationmode none
attr source packetSentToUpper
attr title "packets passed to higher layer, vector(packetBytes)"
vector 148 scenario.client1.tcp.conn-26 rcvSeq:vector ETV
attr interpolationmode sample-hold
vector 149 scenario.client1.tcp.conn-26 rcvAck:vector ETV
attr interpolationmode sample-hold
vector 150 scenario.client1.tcp.conn-37 rcvAdv:vector ETV
attr interpolationmode sample-hold
vector 151 scenario.client1.tcp.conn-37 sndWnd:vector ETV
attr interpolationmode sample-hold
vector 152 scenario.client1.tcp.conn-37 tcpRcvQueueBytes:vector ETV
attr interpolationmode sample-hold
vector 153 scenario.client1.tcp.conn-37 rcvWnd:vector ETV
attr interpolationmode sample-hold
vector 154 scenario.client1.tcp.conn-37 sndAck:vector ETV
attr interpolationmode sample-hold
vector 155 scenario.client1.ppp[2].ppp rcvdPkFromHl:vector(packetBytes) ETV
attr interpolationmode none
attr source packetReceivedFromUpper
attr title "packets received from higher layer, vector(packetBytes)"
vector 156 scenario.client1.ppp[2].ppp.queue packetPushed:vector(packetBytes) ETV
attr interpolationmode none
attr title "packet pushed, vector(packetBytes)"
vector 157 scenario.client1.ppp[2].ppp.queue queueLength:vector ETV
attr interpolationmode sample-hold
attr source "count(packetPushed) - count(packetPopped) - count(packetRemoved) - count(packetDropped)"
attr title "queue length, vector"
vector 158 scenario.client1.ppp[2].ppp.queue packetPopped:vector(packetBytes) ETV
attr interpolationmode none
attr title "packet popped, vector(packetBytes)"
vector 159 scenario.client1.ppp[2].ppp.queue queueingTime:vector ETV
attr interpolationmode none
attr source queueingTime(packetPopped)
attr title "queueing times, vector"
attr unit s
vector 160 scenario.client1.ppp[2].ppp txPk:vector(packetBytes) ETV
attr interpolationmode none
attr source packetSentToLower
attr title "packets transmitted, vector(packetBytes)"
vector 161 scenario.client3.ppp[1].ppp rxPkOk:vector(packetBytes) ETV
attr interpolationmode none
attr source rxPkOk
attr title "packets received OK, vector(packetBytes)"
vector 162 scenario.client3.ppp[1].ppp passedUpPk:vector(packetBytes) ETV
attr interpolationmode none
attr source packetSentToUpper
attr title "packets passed to higher layer, vector(packetBytes)"
vector 163 scenario.client3.tcp.conn-36 rcvSeq:vector ETV
attr interpolationmode sample-hold
vector 164 scenario.client3.tcp.conn-36 rcvAck:vector ETV
attr interpolationmode sample-hold
vector 165 scenario.client3.tcp.conn-36 sndWnd:vector ETV
attr interpolationmode sample-hold
vector 166 scenario.client3.tcp.conn-36 unacked:vector ETV
attr interpolationmode sample-hold
vector 167 scenario.client1.tcp.conn-37 rcvSeq:vector ETV
attr interpolationmode sample-hold
vector 168 scenario.client1.tcp.conn-37 rcvAck:vector ETV
attr interpolationmode sample-hold
vector 169 scenario.client1.tcp.conn-37 unacked:vector ETV
attr interpolationmode sample-hold
vector 170 scenario.client1.tcp.conn-37 cwnd:vector ETV
attr interpolationmode sample-hold
vector 171 scenario.client1.tcp.conn-37 ssthresh:vector ETV
attr interpolationmode sample-hold
vector 172 scenario.client1.tcp.conn-37 dupAcks:vector ETV
attr interpolationmode sample-hold
vector 173 scenario.client3.tcp.conn-36 rtt:vector ETV
attr interpolationmode sample-hold
vector 174 scenario.client3.tcp.conn-36 srtt:vector ETV
attr interpolationmode sample-hold
vector 175 scenario.client3.tcp.conn-36 rttvar:vector ETV
attr interpolationmode sample-hold
vector 176 scenario.client3.tcp.conn-36 rto:vector ETV
attr interpolationmode sample-hold
vector 177 scenario.client3.tcp.conn-36 cwnd:vector ETV
attr interpolationmode sample-hold
vector 178 scenario.client3.tcp.conn-36 ssthresh:vector ETV
attr interpolationmode sample-hold
vector 179 scenario.client3.tcp.conn-36 dupAcks:vector ETV
attr interpolationmode sample-hold
vector 180 scenario.client0.tcp.conn-38 tcpRcvQueueBytes:vector ETV
attr interpolationmode sample-hold
vector 181 scenario.client0.tcp.conn-38 rcvAdv:vector ETV
attr interpolationmode sample-hold
vector 182 scenario.client0.tcp.conn-38 rcvWnd:vector ETV
attr interpolationmode sample-hold
vector 183 scenario.client0.tcp.conn-38 sndAck:vector ETV
attr interpolationmode sample-hold
vector 184 scenario.client3.tcp.conn-39 rcvAdv:vector ETV
attr interpolationmode sample-hold
vector 185 scenario.client3.tcp.conn-39 sndWnd:vector ETV
attr interpolationmode sample-hold
vector 186 scenario.client3.tcp.conn-39 tcpRcvQueueBytes:vector ETV
attr interpolationmode sample-hold
vector 187 scenario.client3.tcp.conn-39 rcvWnd:vector ETV
attr interpolationmode sample-hold
vector 188 scenario.client3.tcp.conn-39 sndAck:vector ETV
attr interpolationmode sample-hold
vector 189 scenario.client0.tcp.conn-38 rcvSeq:vector ETV
attr interpolationmode sample-hold
vector 190 scenario.client0.tcp.conn-38 rcvAck:vector ETV
attr interpolationmode sample-hold
vector 191 scenario.client0.tcp.conn-38 sndWnd:vector ETV
attr interpolationmode sample-hold
vector 192 scenario.client0.tcp.conn-38 unacked:vector ETV
attr interpolationmode sample-hold
vector 193 scenario.client3.tcp.conn-39 rcvSeq:vector ETV
attr interpolationmode sample-hold
vector 194 scenario.client3.tcp.conn-39 rcvAck:vector ETV
attr interpolationmode sample-hold
vector 195 scenario.client3.tcp.conn-39 unacked:vector ETV
attr interpolationmode sample-hold
vector 196 scenario.client3.tcp.conn-39 cwnd:vector ETV
attr interpolationmode sample-hold
vector 197 scenario.client3.tcp.conn-39 ssthresh:vector ETV
attr interpolationmode sample-hold
vector 198 scenario.client3.tcp.conn-39 dupAcks:vector ETV
attr interpolationmode sample-hold
vector 199 scenario.client0.tcp.conn-38 rtt:vector ETV
attr interpolationmode sample-hold
vector 200 scenario.client0.tcp.conn-38 srtt:vector ETV
attr interpolationmode sample-hold
vector 201 scenario.client0.tcp.conn-38 rttvar:vector ETV
attr interpolationmode sample-hold
vector 202 scenario.client0.tcp.conn-38 rto:vector ETV
attr interpolationmode sample-hold
vector 203 scenario.client0.tcp.conn-38 cwnd:vector ETV
attr interpolationmode sample-hold
vector 204 scenario.client0.tcp.conn-38 ssthresh:vector ETV
attr interpolationmode sample-hold
vector 205 scenario.client0.tcp.conn-38 dupAcks:vector ETV
attr interpolationmode sample-hold
vector 206 scenario.client1.tcp.conn-40 tcpRcvQueueBytes:vector ETV
attr interpolationmode sample-hold
vector 207 scenario.client1.tcp.conn-40 rcvAdv:vector ETV
attr interpolationmode sample-hold
vector 208 scenario.client1.tcp.conn-40 rcvWnd:vector ETV
attr interpolationmode sample-hold
vector 209 scenario.client1.tcp.conn-40 sndAck:vector ETV
attr interpolationmode sample-hold
vector 210 scenario.client3.tcp.conn-41 rcvAdv:vector ETV
attr interpolationmode sample-hold
vector 211 scenario.client3.tcp.conn-41 sndWnd:vector ETV
attr interpolationmode sample-hold
vector 212 scenario.client3.tcp.conn-41 tcpRcvQueueBytes:vector ETV
attr interpolationmode sample-hold
vector 213 scenario.client3.tcp.conn-41 rcvWnd:vector ETV
attr interpolationmode sample-hold
vector 214 scenario.client3.tcp.conn-41 sndAck:vector ETV
attr interpolationmode sample-hold
vector 215 scenario.client1.tcp.conn-40 rcvSeq:vector ETV
attr interpolationmode sample-hold
vector 216 scenario.client1.tcp.conn-40 rcvAck:vector ETV
attr interpolationmode sample-hold
vector 217 scenario.client1.tcp.conn-40 sndWnd:vector ETV
attr interpolationmode sample-hold
vector 218 scenario.client1.tcp.conn-40 unacked:vector ETV
attr interpolationmode sample-hold
vector 219 scenario.client3.tcp.conn-41 rcvSeq:vector ETV
attr interpolationmode sample-hold
vector 220 scenario.client3.tcp.conn-41 rcvAck:vector ETV
attr interpolationmode sample-hold
vector 221 scenario.client3.tcp.conn-41 unacked:vector ETV
attr interpolationmode sample-hold
vector 222 scenario.client3.tcp.conn-41 cwnd:vector ETV
attr interpolationmode sample-hold
vector 223 scenario.client3.tcp.conn-41 ssthresh:vector ETV
attr interpolationmode sample-hold
vector 224 scenario.client3.tcp.conn-41 dupAcks:vector ETV
attr interpolationmode sample-hold
vector 225 scenario.client1.tcp.conn-40 rtt:vector ETV
attr interpolationmode sample-hold
vector 226 scenario.client1.tcp.conn-40 srtt:vector ETV
attr interpolationmode sample-hold
vector 227 scenario.client1.tcp.conn-40 rttvar:vector ETV
attr interpolationmode sample-hold
vector 228 scenario.client1.tcp.conn-40 rto:vector ETV
attr interpolationmode sample-hold
vector 229 scenario.client1.tcp.conn-40 cwnd:vector ETV
attr interpolationmode sample-hold
vector 230 scenario.client1.tcp.conn-40 ssthresh:vector ETV
attr interpolationmode sample-hold
vector 231 scenario.client1.tcp.conn-40 dupAcks:vector ETV
attr interpolationmode sample-hold
vector 232 scenario.client1.tcp.conn-42 tcpRcvQueueBytes:vector ETV
attr interpolationmode sample-hold
vector 233 scenario.client1.tcp.conn-42 rcvAdv:vector ETV
attr interpolationmode sample-hold
vector 234 scenario.client1.tcp.conn-42 rcvWnd:vector ETV
attr interpolationmode sample-hold
vector 235 scenario.client1.tcp.conn-42 sndAck:vector ETV
attr interpolationmode sample-hold
vector 236 scenario.client1.ppp[1].ppp rcvdPkFromHl:vector(packetBytes) ETV
attr interpolationmode none
attr source packetReceivedFromUpper
attr title "packets received from higher layer, vector(packetBytes)"
vector 237 scenario.client1.ppp[1].ppp.queue packetPushed:vector(packetBytes) ETV
attr interpolationmode none
attr title "packet pushed, vector(packetBytes)"
vector 238 scenario.client1.ppp[1].ppp.queue queueLength:vector ETV
attr interpolationmode sample-hold
attr source "count(packetPushed) - count(packetPopped) - count(packetRemoved) - count(packetDropped)"
attr title "queue length, vector"
vector 239 scenario.client1.ppp[1].ppp.queue packetPopped:vector(packetBytes) ETV
attr interpolationmode none
attr title "packet popped, vector(packetBytes)"
vector 240 scenario.client1.ppp[1].ppp.queue queueingTime:vector ETV
attr interpolationmode none
attr source queueingTime(packetPopped)
attr title "queueing times, vector"
attr unit s
vector 241 scenario.client1.ppp[1].ppp txPk:vector(packetBytes) ETV
attr interpolationmode none
attr source packetSentToLower
attr title "packets transmitted, vector(packetBytes)"
vector 242 scenario.client2.ppp[1].ppp rxPkOk:vector(packetBytes) ETV
attr interpolationmode none
attr source rxPkOk
attr title "packets received OK, vector(packetBytes)"
vector 243 scenario.client2.ppp[1].ppp passedUpPk:vector(packetBytes) ETV
attr interpolationmode none
attr source packetSentToUpper
attr title "packets passed to higher layer, vector(packetBytes)"
vector 244 scenario.client2.tcp.conn-43 rcvAdv:vector ETV
attr interpolationmode sample-hold
vector 245 scenario.client2.tcp.conn-43 sndWnd:vector ETV
attr interpolationmode sample-hold
vector 246 scenario.client2.tcp.conn-43 tcpRcvQueueBytes:vector ETV
attr interpolationmode sample-hold
vector 247 scenario.client2.tcp.conn-43 rcvWnd:vector ETV
attr interpolationmode sample-hold
vector 248 scenario.client2.tcp.conn-43 sndAck:vector ETV
attr interpolationmode sample-hold
vector 249 scenario.client2.ppp[1].ppp rcvdPkFromHl:vector(packetBytes) ETV
attr interpolationmode none
attr source packetReceivedFromUpper
attr title "packets received from higher layer, vector(packetBytes)"
vector 250 scenario.client2.ppp[1].ppp.queue packetPushed:vector(packetBytes) ETV
attr interpolationmode none
attr title "packet pushed, vector(packetBytes)"
vector 251 scenario.client2.ppp[1].ppp.queue queueLength:vector ETV
attr interpolationmode sample-hold
attr source "count(packetPushed) - count(packetPopped) - count(packetRemoved) - count(packetDropped)"
attr title "queue length, vector"
vector 252 scenario.client2.ppp[1].ppp.queue packetPopped:vector(packetBytes) ETV
attr interpolationmode none
attr title "packet popped, vector(packetBytes)"
vector 253 scenario.client2.ppp[1].ppp.queue queueingTime:vector ETV
attr interpolationmode none
attr source queueingTime(packetPopped)
attr title "queueing times, vector"
attr unit s
vector 254 scenario.client2.ppp[1].ppp txPk:vector(packetBytes) ETV
attr interpolationmode none
attr source packetSentToLower
attr title "packets transmitted, vector(packetBytes)"
vector 255 scenario.client1.ppp[1].ppp rxPkOk:vector(packetBytes) ETV
attr interpolationmode none
attr source rxPkOk
attr title "packets received OK, vector(packetBytes)"
vector 256 scenario.client1.ppp[1].ppp passedUpPk:vector(packetBytes) ETV
attr interpolationmode none
attr source packetSentToUpper
attr title "packets passed to higher layer, vector(packetBytes)"
vector 257 scenario.client1.tcp.conn-42 rcvSeq:vector ETV
attr interpolationmode sample-hold
vector 258 scenario.client1.tcp.conn-42 rcvAck:vector ETV
attr interpolationmode sample-hold
vector 259 scenario.client1.tcp.conn-42 sndWnd:vector ETV
attr interpolationmode sample-hold
vector 260 scenario.client1.tcp.conn-42 unacked:vector ETV
attr interpolationmode sample-hold
vector 261 scenario.client2.tcp.conn-43 rcvSeq:vector ETV
attr interpolationmode sample-hold
vector 262 scenario.client2.tcp.conn-43 rcvAck:vector ETV
attr interpolationmode sample-hold
vector 263 scenario.client2.tcp.conn-43 unacked:vector ETV
attr interpolationmode sample-hold
vector 264 scenario.client2.tcp.conn-43 cwnd:vector ETV
attr interpolationmode sample-hold
vector 265 scenario.client2.tcp.conn-43 ssthresh:vector ETV
attr interpolationmode sample-hold
vector 266 scenario.client2.tcp.conn-43 dupAcks:vector ETV
attr interpolationmode sample-hold
vector 267 scenario.client1.tcp.conn-42 rtt:vector ETV
attr interpolationmode sample-hold
vector 268 scenario.client1.tcp.conn-42 srtt:vector ETV
attr interpolationmode sample-hold
vector 269 scenario.client1.tcp.conn-42 rttvar:vector ETV
attr interpolationmode sample-hold
vector 270 scenario.client1.tcp.conn-42 rto:vector ETV
attr interpolationmode sample-hold
vector 271 scenario.client1.tcp.conn-42 cwnd:vector ETV
attr interpolationmode sample-hold
vector 272 scenario.client1.tcp.conn-42 ssthresh:vector ETV
attr interpolationmode sample-hold
vector 273 scenario.client1.tcp.conn-42 dupAcks:vector ETV
attr interpolationmode sample-hold
vector 274 scenario.client0.tcp.conn-44 tcpRcvQueueBytes:vector ETV
attr interpolationmode sample-hold
vector 275 scenario.client0.tcp.conn-44 rcvAdv:vector ETV
attr interpolationmode sample-hold
vector 276 scenario.client0.tcp.conn-44 rcvWnd:vector ETV
attr interpolationmode sample-hold
vector 277 scenario.client0.tcp.conn-44 sndAck:vector ETV
attr interpolationmode sample-hold
vector 278 scenario.client0.ppp[1].ppp rcvdPkFromHl:vector(packetBytes) ETV
attr interpolationmode none
attr source packetReceivedFromUpper
attr title "packets received from higher layer, vector(packetBytes)"
vector 279 scenario.client0.ppp[1].ppp.queue packetPushed:vector(packetBytes) ETV
attr interpolationmode none
attr title "packet pushed, vector(packetBytes)"
vector 280 scenario.client0.ppp[1].ppp.queue queueLength:vector ETV
attr interpolationmode sample-hold
attr source "count(packetPushed) - count(packetPopped) - count(packetRemoved) - count(packetDropped)"
attr title "queue length, vector"
vector 281 scenario.client0.ppp[1].ppp.queue packetPopped:vector(packetBytes) ETV
attr interpolationmode none
attr title "packet popped, vector(packetBytes)"
vector 282 scenario.client0.ppp[1].ppp.queue queueingTime:vector ETV
attr interpolationmode none
attr source queueingTime(packetPopped)
attr title "queueing times, vector"
attr unit s
vector 283 scenario.client0.ppp[1].ppp txPk:vector(packetBytes) ETV
attr interpolationmode none
attr source packetSentToLower
attr title "packets transmitted, vector(packetBytes)"
vector 284 scenario.client2.ppp[0].ppp rxPkOk:vector(packetBytes) ETV
attr interpolationmode none
attr source rxPkOk
attr title "packets received OK, vector(packetBytes)"
vector 285 scenario.client2.ppp[0].ppp passedUpPk:vector(packetBytes) ETV
attr interpolationmode none
attr source packetSentToUpper
attr title "packets passed to higher layer, vector(packetBytes)"
vector 286 scenario.client2.tcp.conn-45 rcvAdv:vector ETV
attr interpolationmode sample-hold
vector 287 scenario.client2.tcp.conn-45 sndWnd:vector ETV
attr interpolationmode sample-hold
vector 288 scenario.client2.tcp.conn-45 tcpRcvQueueBytes:vector ETV
attr interpolationmode sample-hold
vector 289 scenario.client2.tcp.conn-45 rcvWnd:vector ETV
attr interpolationmode sample-hold
vector 290 scenario.client2.tcp.conn-45 sndAck:vector ETV
attr interpolationmode sample-hold
vector 291 scenario.client2.ppp[0].ppp rcvdPkFromHl:vector(packetBytes) ETV
attr interpolationmode none
attr source packetReceivedFromUpper
attr title "packets received from higher layer, vector(packetBytes)"
vector 292 scenario.client2.ppp[0].ppp.queue packetPushed:vector(packetBytes) ETV
attr interpolationmode none
attr title "packet pushed, vector(packetBytes)"
vector 293 scenario.client2.ppp[0].ppp.queue queueLength:vector ETV
attr interpolationmode sample-hold
attr source "count(packetPushed) - count(packetPopped) - count(packetRemoved) - count(packetDropped)"
attr title "queue length, vector"
vector 294 scenario.client2.ppp[0].ppp.queue packetPopped:vector(packetBytes) ETV
attr interpolationmode none
attr title "packet popped, vector(packetBytes)"
vector 295 scenario.client2.ppp[0].ppp.queue queueingTime:vector ETV
attr interpolationmode none
attr source queueingTime(packetPopped)
attr title "queueing times, vector"
attr unit s
vector 296 scenario.client2.ppp[0].ppp txPk:vector(packetBytes) ETV
attr interpolationmode none
attr source packetSentToLower
attr title "packets transmitted, vector(packetBytes)"
vector 297 scenario.client0.ppp[1].ppp rxPkOk:vector(packetBytes) ETV
attr interpolationmode none
attr source rxPkOk
attr title "packets received OK, vector(packetBytes)"
vector 298 scenario.client0.ppp[1].ppp passedUpPk:vector(packetBytes) ETV
attr interpolationmode none
attr source packetSentToUpper
attr title "packets passed to higher layer, vector(packetBytes)"
vector 299 scenario.client0.tcp.conn-44 rcvSeq:vector ETV
attr interpolationmode sample-hold
vector 300 scenario.client0.tcp.conn-44 rcvAck:vector ETV
attr interpolationmode sample-hold
vector 301 scenario.client0.tcp.conn-44 sndWnd:vector ETV
attr interpolationmode sample-hold
vector 302 scenario.client0.tcp.conn-44 unacked:vector ETV
attr interpolationmode sample-hold
vector 303 scenario.client2.tcp.conn-45 rcvSeq:vector ETV
attr interpolationmode sample-hold
vector 304 scenario.client2.tcp.conn-45 rcvAck:vector ETV
attr interpolationmode sample-hold
vector 305 scenario.client2.tcp.conn-45 unacked:vector ETV
attr interpolationmode sample-hold
vector 306 scenario.client2.tcp.conn-45 cwnd:vector ETV
attr interpolationmode sample-hold
vector 307 scenario.client2.tcp.conn-45 ssthresh:vector ETV
attr interpolationmode sample-hold
vector 308 scenario.client2.tcp.conn-45 dupAcks:vector ETV
attr interpolationmode sample-hold
vector 309 scenario.client0.tcp.conn-44 rtt:vector ETV
attr interpolationmode sample-hold
vector 310 scenario.client0.tcp.conn-44 srtt:vector ETV
attr interpolationmode sample-hold
vector 311 scenario.client0.tcp.conn-44 rttvar:vector ETV
attr interpolationmode sample-hold
vector 312 scenario.client0.tcp.conn-44 rto:vector ETV
attr interpolationmode sample-hold
vector 313 scenario.client0.tcp.conn-44 cwnd:vector ETV
attr interpolationmode sample-hold
vector 314 scenario.client0.tcp.conn-44 ssthresh:vector ETV
attr interpolationmode sample-hold
vector 315 scenario.client0.tcp.conn-44 dupAcks:vector ETV
attr interpolationmode sample-hold
vector 316 scenario.client2.tcp.conn-46 tcpRcvQueueBytes:vector ETV
attr interpolationmode sample-hold
vector 317 scenario.client2.tcp.conn-46 rcvAdv:vector ETV
attr interpolationmode sample-hold
vector 318 scenario.client2.tcp.conn-46 rcvWnd:vector ETV
attr interpolationmode sample-hold
vector 319 scenario.client2.tcp.conn-46 sndAck:vector ETV
attr interpolationmode sample-hold
vector 320 scenario.client1.tcp.conn-47 rcvAdv:vector ETV
attr interpolationmode sample-hold
vector 321 scenario.client1.tcp.conn-47 sndWnd:vector ETV
attr interpolationmode sample-hold
vector 322 scenario.client1.tcp.conn-47 tcpRcvQueueBytes:vector ETV
attr interpolationmode sample-hold
vector 323 scenario.client1.tcp.conn-47 rcvWnd:vector ETV
attr interpolationmode sample-hold
vector 324 scenario.client1.tcp.conn-47 sndAck:vector ETV
attr interpolationmode sample-hold
vector 325 scenario.client2.tcp.conn-46 rcvSeq:vector ETV
attr interpolationmode sample-hold
vector 326 scenario.client2.tcp.conn-46 rcvAck:vector ETV
attr interpolationmode sample-hold
vector 327 scenario.client2.tcp.conn-46 sndWnd:vector ETV
attr interpolationmode sample-hold
vector 328 scenario.client2.tcp.conn-46 unacked:vector ETV
attr interpolationmode sample-hold
vector 329 scenario.client1.tcp.conn-47 rcvSeq:vector ETV
attr interpolationmode sample-hold
vector 330 scenario.client1.tcp.conn-47 rcvAck:vector ETV
attr interpolationmode sample-hold
vector 331 scenario.client1.tcp.conn-47 unacked:vector ETV
attr interpolationmode sample-hold
vector 332 scenario.client1.tcp.conn-47 cwnd:vector ETV
attr interpolationmode sample-hold
vector 333 scenario.client1.tcp.conn-47 ssthresh:vector ETV
attr interpolationmode sample-hold
vector 334 scenario.client1.tcp.conn-47 dupAcks:vector ETV
attr interpolationmode sample-hold
vector 335 scenario.client2.tcp.conn-46 rtt:vector ETV
attr interpolationmode sample-hold
vector 336 scenario.client2.tcp.conn-46 srtt:vector ETV
attr interpolationmode sample-hold
vector 337 scenario.client2.tcp.conn-46 rttvar:vector ETV
attr interpolationmode sample-hold
vector 338 scenario.client2.tcp.conn-46 rto:vector ETV
attr interpolationmode sample-hold
vector 339 scenario.client2.tcp.conn-46 cwnd:vector ETV
attr interpolationmode sample-hold
vector 340 scenario.client2.tcp.conn-46 ssthresh:vector ETV
attr interpolationmode sample-hold
vector 341 scenario.client2.tcp.conn-46 dupAcks:vector ETV
attr interpolationmode sample-hold
vector 342 scenario.client2.tcp.conn-48 tcpRcvQueueBytes:vector ETV
attr interpolationmode sample-hold
vector 343 scenario.client2.tcp.conn-48 rcvAdv:vector ETV
attr interpolationmode sample-hold
vector 344 scenario.client2.tcp.conn-48 rcvWnd:vector ETV
attr interpolationmode sample-hold
vector 345 scenario.client2.tcp.conn-48 sndAck:vector ETV
attr interpolationmode sample-hold
vector 346 scenario.client0.tcp.conn-49 rcvAdv:vector ETV
attr interpolationmode sample-hold
vector 347 scenario.client0.tcp.conn-49 sndWnd:vector ETV
attr interpolationmode sample-hold
vector 348 scenario.client0.tcp.conn-49 tcpRcvQueueBytes:vector ETV
attr interpolationmode sample-hold
vector 349 scenario.client0.tcp.conn-49 rcvWnd:vector ETV
attr interpolationmode sample-hold
vector 350 scenario.client0.tcp.conn-49 sndAck:vector ETV
attr interpolationmode sample-hold
vector 351 scenario.client2.tcp.conn-48 rcvSeq:vector ETV
attr interpolationmode sample-hold
vector 352 scenario.client2.tcp.conn-48 rcvAck:vector ETV
attr interpolationmode sample-hold
vector 353 scenario.client2.tcp.conn-48 sndWnd:vector ETV
attr interpolationmode sample-hold
vector 354 scenario.client2.tcp.conn-48 unacked:vector ETV
attr interpolationmode sample-hold
vector 355 scenario.client0.tcp.conn-49 rcvSeq:vector ETV
attr interpolationmode sample-hold
vector 356 scenario.client0.tcp.conn-49 rcvAck:vector ETV
attr interpolationmode sample-hold
vector 357 scenario.client0.tcp.conn-49 unacked:vector ETV
attr interpolationmode sample-hold
vector 358 scenario.client0.tcp.conn-49 cwnd:vector ETV
attr interpolationmode sample-hold
vector 359 scenario.client0.tcp.conn-49 ssthresh:vector ETV
attr interpolationmode sample-hold
vector 360 scenario.client0.tcp.conn-49 dupAcks:vector ETV
attr interpolationmode sample-hold
vector 361 scenario.client2.tcp.conn-48 rtt:vector ETV
attr interpolationmode sample-hold
vector 362 scenario.client2.tcp.conn-48 srtt:vector ETV
attr interpolationmode sample-hold
vector 363 scenario.client2.tcp.conn-48 rttvar:vector ETV
attr interpolationmode sample-hold
vector 364 scenario.client2.tcp.conn-48 rto:vector ETV
attr interpolationmode sample-hold
vector 365 scenario.client2.tcp.conn-48 cwnd:vector ETV
attr interpolationmode sample-hold
vector 366 scenario.client2.tcp.conn-48 ssthresh:vector ETV
attr interpolationmode sample-hold
vector 367 scenario.client2.tcp.conn-48 dupAcks:vector ETV
attr interpolationmode sample-hold
vector 368 scenario.client1.tcp.conn-50 tcpRcvQueueBytes:vector ETV
attr interpolationmode sample-hold
vector 369 scenario.client1.tcp.conn-50 rcvAdv:vector ETV
attr interpolationmode sample-hold
vector 370 scenario.client1.tcp.conn-50 rcvWnd:vector ETV
attr interpolationmode sample-hold
vector 371 scenario.client1.tcp.conn-50 sndAck:vector ETV
attr interpolationmode sample-hold
vector 372 scenario.client1.ppp[0].ppp rcvdPkFromHl:vector(packetBytes) ETV
attr interpolationmode none
attr source packetReceivedFromUpper
attr title "packets received from higher layer, vector(packetBytes)"
vector 373 scenario.client1.ppp[0].ppp.queue packetPushed:vector(packetBytes) ETV
attr interpolationmode none
attr title "packet pushed, vector(packetBytes)"
vector 374 scenario.client1.ppp[0].ppp.queue queueLength:vector ETV
attr interpolationmode sample-hold
attr source "count(packetPushed) - count(packetPopped) - count(packetRemoved) - count(packetDropped)"
attr title "queue length, vector"
vector 375 scenario.client1.ppp[0].ppp.queue packetPopped:vector(packetBytes) ETV
attr interpolationmode none
attr title "packet popped, vector(packetBytes)"
vector 376 scenario.client1.ppp[0].ppp.queue queueingTime:vector ETV
attr interpolationmode none
attr source queueingTime(packetPopped)
attr title "queueing times, vector"
attr unit s
vector 377 scenario.client1.ppp[0].ppp txPk:vector(packetBytes) ETV
attr interpolationmode none
attr source packetSentToLower
attr title "packets transmitted, vector(packetBytes)"
vector 378 scenario.client0.ppp[0].ppp rxPkOk:vector(packetBytes) ETV
attr interpolationmode none
attr source rxPkOk
attr title "packets received OK, vector(packetBytes)"
vector 379 scenario.client0.ppp[0].ppp passedUpPk:vector(packetBytes) ETV
attr interpolationmode none
attr source packetSentToUpper
attr title "packets passed to higher layer, vector(packetBytes)"
vector 380 scenario.client0.tcp.conn-51 rcvAdv:vector ETV
attr interpolationmode sample-hold
vector 381 scenario.client0.tcp.conn-51 sndWnd:vector ETV
attr interpolationmode sample-hold
vector 382 scenario.client0.tcp.conn-51 tcpRcvQueueBytes:vector ETV
attr interpolationmode sample-hold
vector 383 scenario.client0.tcp.conn-51 rcvWnd:vector ETV
attr interpolationmode sample-hold
vector 384 scenario.client0.tcp.conn-51 sndAck:vector ETV
attr interpolationmode sample-hold
vector 385 scenario.client0.ppp[0].ppp rcvdPkFromHl:vector(packetBytes) ETV
attr interpolationmode none
attr source packetReceivedFromUpper
attr title "packets received from higher layer, vector(packetBytes)"
vector 386 scenario.client0.ppp[0].ppp.queue packetPushed:vector(packetBytes) ETV
attr interpolationmode none
attr title "packet pushed, vector(packetBytes)"
vector 387 scenario.client0.ppp[0].ppp.queue queueLength:vector ETV
attr interpolationmode sample-hold
attr source "count(packetPushed) - count(packetPopped) - count(packetRemoved) - count(packetDropped)"
attr title "queue length, vector"
vector 388 scenario.client0.ppp[0].ppp.queue packetPopped:vector(packetBytes) ETV
attr interpolationmode none
attr title "packet popped, vector(packetBytes)"
vector 389 scenario.client0.ppp[0].ppp.queue queueingTime:vector ETV
attr interpolationmode none
attr source queueingTime(packetPopped)
attr title "queueing times, vector"
attr unit s
vector 390 scenario.client0.ppp[0].ppp txPk:vector(packetBytes) ETV
attr interpolationmode none
attr source packetSentToLower
attr title "packets transmitted, vector(packetBytes)"
vector 391 scenario.client1.ppp[0].ppp rxPkOk:vector(packetBytes) ETV
attr interpolationmode none
attr source rxPkOk
attr title "packets received OK, vector(packetBytes)"
vector 392 scenario.client1.ppp[0].ppp passedUpPk:vector(packetBytes) ETV
attr interpolationmode none
attr source packetSentToUpper
attr title "packets passed to higher layer, vector(packetBytes)"
vector 393 scenario.client1.tcp.conn-50 rcvSeq:vector ETV
attr interpolationmode sample-hold
vector 394 scenario.client1.tcp.conn-50 rcvAck:vector ETV
attr interpolationmode sample-hold
vector 395 scenario.client1.tcp.conn-50 sndWnd:vector ETV
attr interpolationmode sample-hold
vector 396 scenario.client1.tcp.conn-50 unacked:vector ETV
attr interpolationmode sample-hold
vector 397 scenario.client0.tcp.conn-51 rcvSeq:vector ETV
attr interpolationmode sample-hold
vector 398 scenario.client0.tcp.conn-51 rcvAck:vector ETV
attr interpolationmode sample-hold
vector 399 scenario.client0.tcp.conn-51 unacked:vector ETV
attr interpolationmode sample-hold
vector 400 scenario.client0.tcp.conn-51 cwnd:vector ETV
attr interpolationmode sample-hold
vector 401 scenario.client0.tcp.conn-51 ssthresh:vector ETV
attr interpolationmode sample-hold
vector 402 scenario.client0.tcp.conn-51 dupAcks:vector ETV
attr interpolationmode sample-hold
vector 403 scenario.client1.tcp.conn-50 rtt:vector ETV
attr interpolationmode sample-hold
vector 404 scenario.client1.tcp.conn-50 srtt:vector ETV
attr interpolationmode sample-hold
vector 405 scenario.client1.tcp.conn-50 rttvar:vector ETV
attr interpolationmode sample-hold
vector 406 scenario.client1.tcp.conn-50 rto:vector ETV
attr interpolationmode sample-hold
vector 407 scenario.client1.tcp.conn-50 cwnd:vector ETV
attr interpolationmode sample-hold
vector 408 scenario.client1.tcp.conn-50 ssthresh:vector ETV
attr interpolationmode sample-hold
vector 409 scenario.client1.tcp.conn-50 dupAcks:vector ETV
attr interpolationmode sample-hold
vector 410 scenario.client0.tcp.conn-52 tcpRcvQueueBytes:vector ETV
attr interpolationmode sample-hold
vector 411 scenario.client0.tcp.conn-52 rcvAdv:vector ETV
attr interpolationmode sample-hold
vector 412 scenario.client0.tcp.conn-52 rcvWnd:vector ETV
attr interpolationmode sample-hold
vector 413 scenario.client0.tcp.conn-52 sndAck:vector ETV
attr interpolationmode sample-hold
vector 414 scenario.client1.tcp.conn-53 rcvAdv:vector ETV
attr interpolationmode sample-hold
vector 415 scenario.client1.tcp.conn-53 sndWnd:vector ETV
attr interpolationmode sample-hold
vector 416 scenario.client1.tcp.conn-53 tcpRcvQueueBytes:vector ETV
attr interpolationmode sample-hold
vector 417 scenario.client1.tcp.conn-53 rcvWnd:vector ETV
attr interpolationmode sample-hold
vector 418 scenario.client1.tcp.conn-53 sndAck:vector ETV
attr interpolationmode sample-hold
vector 419 scenario.client0.tcp.conn-52 rcvSeq:vector ETV
attr interpolationmode sample-hold
vector 420 scenario.client0.tcp.conn-52 rcvAck:vector ETV
attr interpolationmode sample-hold
vector 421 scenario.client0.tcp.conn-52 sndWnd:vector ETV
attr interpolationmode sample-hold
vector 422 scenario.client0.tcp.conn-52 unacked:vector ETV
attr interpolationmode sample-hold
vector 423 scenario.client1.tcp.conn-53 rcvSeq:vector ETV
attr interpolationmode sample-hold
vector 424 scenario.client1.tcp.conn-53 rcvAck:vector ETV
attr interpolationmode sample-hold
vector 425 scenario.client1.tcp.conn-53 unacked:vector ETV
attr interpolationmode sample-hold
vector 426 scenario.client1.tcp.conn-53 cwnd:vector ETV
attr interpolationmode sample-hold
vector 427 scenario.client1.tcp.conn-53 ssthresh:vector ETV
attr interpolationmode sample-hold
vector 428 scenario.client1.tcp.conn-53 dupAcks:vector ETV
attr interpolationmode sample-hold
vector 429 scenario.client0.tcp.conn-52 rtt:vector ETV
attr interpolationmode sample-hold
vector 430 scenario.client0.tcp.conn-52 srtt:vector ETV
attr interpolationmode sample-hold
vector 431 scenario.client0.tcp.conn-52 rttvar:vector ETV
attr interpolationmode sample-hold
vector 432 scenario.client0.tcp.conn-52 rto:vector ETV
attr interpolationmode sample-hold
vector 433 scenario.client0.tcp.conn-52 cwnd:vector ETV
attr interpolationmode sample-hold
vector 434 scenario.client0.tcp.conn-52 ssthresh:vector ETV
attr interpolationmode sample-hold
vector 435 scenario.client0.tcp.conn-52 dupAcks:vector ETV
attr interpolationmode sample-hold
0	0	0	0
0	381	6.848986859828	1
0	382	6.849394859828	0
0	396	6.850778859828	1
0	399	6.851154859828	0
0	422	6.913174840541	1
0	423	6.913582840541	0
0	435	6.914990840541	1
0	436	6.915374840541	0
0	483	7.287803915525	1
0	484	7.288187915525	0
0	535	7.605347969848	1
0	536	7.605723969848	0
0	558	7.76273295999	1
0	559	7.76311695999	0
0	595	7.880563888302	1
0	596	7.880939888302	0
0	652	7.977832304453	1
0	655	7.978208304453	0
0	689	8.023603105442	1
0	693	8.023995105442	0
0	739	8.091750937101	1
0	740	8.092126937101	0
0	834	8.868722706625	1
0	835	8.869106706625	0
0	1042	10.43683779754	1
0	1043	10.43721379754	0
0	1080	10.532483843013	1
0	1081	10.532867843013	0
0	1095	10.75600036964	1
0	1096	10.75638436964	0
0	1342	11.489511708121	1
0	1343	11.489887708121	0
1	0	0	0
1	249	6.531937620167	1
1	250	6.532345620167	0
1	262	6.533753620167	1
1	263	6.534137620167	0
1	319	6.695783942259	1
1	320	6.696191942259	0
1	334	6.697575942259	1
1	337	6.697951942259	0
1	344	6.777168214972	1
1	345	6.777552214972	0
1	460	6.97507971215	1
1	461	6.97545571215	0
1	475	7.132616258064	1
1	476	7.132992258064	0
1	498	7.35796596881	1
1	499	7.35834996881	0
1	685	8.023603105442	1
1	692	8.023979105442	0
1	692	8.023979105442	1
1	695	8.024371105442	0
1	781	8.180170022278	1
1	784	8.180546022278	0
1	804	8.75781844319	1
1	805	8.75820244319	0
1	1005	10.33112271749	1
1	1006	10.33150671749	0
1	1027	10.432442095401	1
1	1028	10.432818095401	0
1	1162	10.948235424055	1
1	1163	10.948611424055	0
1	1185	11.028346511429	1
1	1186	11.028730511429	0
2	0	0	0
2	56	3.298005689749	1
2	57	3.298413689749	0
2	71	3.299797689749	1
2	74	3.300173689749	0
2	146	4.00501940672	1
2	147	4.00542740672	0
2	159	4.00683540672	1
2	160	4.00721940672	0
2	691	8.023603105442	1
2	694	8.023995105442	0
2	819	8.775213993591	1
2	820	8.775597993591	0
2	892	9.384288034547	1
2	893	9.384664034547	0
2	919	9.994353038972	1
2	921	9.994737038972	0
2	952	10.266118292306	1
2	953	10.266494292306	0
2	960	10.285802730918	1
2	961	10.286186730918	0
2	1140	10.941737055086	1
2	1141	10.942121055086	0
2	1252	11.204011051973	1
2	1253	11.204387051973	0
2	1267	11.220216380504	1
2	1268	11.220592380504	0
2	1385	12.085477161167	1
2	1386	12.085861161167	0
3	0	0	0
4	0	0	0
4	375	6.848078859828	1
4	376	6.848486859828	0
4	388	6.849894859828	1
4	389	6.850278859828	0
4	428	6.914082840541	1
4	429	6.914490840541	0
4	443	6.915874840541	1
4	446	6.916250840541	0
4	490	7.288687915525	1
4	491	7.289063915525	0
4	528	7.604463969848	1
4	529	7.604847969848	0
4	565	7.76361695999	1
4	566	7.76399295999	0
4	588	7.879679888302	1
4	589	7.880063888302	0
4	632	7.976940304453	1
4	636	7.977332304453	0
4	709	8.024495105442	1
4	712	8.024871105442	0
4	732	8.090866937101	1
4	733	8.091250937101	0
4	841	8.869606706625	1
4	842	8.869982706625	0
4	1035	10.43595379754	1
4	1036	10.43633779754	0
4	1087	10.533367843013	1
4	1088	10.533743843013	0
4	1102	10.75688436964	1
4	1103	10.75726036964	0
4	1335	11.488627708121	1
4	1336	11.489011708121	0
5	0	0	0
5	217	6.149418622394	1
5	218	6.149826622394	0
5	230	6.151234622394	1
5	231	6.151618622394	0
5	287	6.6147572996	1
5	288	6.6151652996	0
5	302	6.6165492996	1
5	305	6.6169252996	0
5	366	6.801673541306	1
5	367	6.802049541306	0
5	406	6.866007596057	1
5	407	6.866391596057	0
5	520	7.416713062777	1
5	521	7.417089062777	0
5	543	7.725561415449	1
5	544	7.725945415449	0
5	628	7.976940304453	1
5	635	7.977316304453	0
5	635	7.977316304453	1
5	638	7.977708304453	0
5	747	8.178394022278	1
5	748	8.178778022278	0
5	790	8.180546022278	1
5	791	8.180922022278	0
5	1222	11.172241283608	1
5	1223	11.172617283608	0
5	1290	11.276708215095	1
5	1291	11.277092215095	0
5	1312	11.443123573718	1
5	1313	11.443499573718	0
5	1320	11.446144906155	1
5	1321	11.446528906155	0
6	0	0	0
6	120	3.716994306345	1
6	121	3.717402306345	0
6	135	3.718786306345	1
6	138	3.719162306345	0
6	178	4.126513592944	1
6	179	4.126921592944	0
6	191	4.128329592944	1
6	192	4.128713592944	0
6	573	7.794379617542	1
6	574	7.794763617542	0
6	634	7.976940304453	1
6	637	7.977332304453	0
6	862	9.009276590106	1
6	863	9.009652590106	0
6	900	9.781700064943	1
6	901	9.782084064943	0
6	982	10.295843320536	1
6	983	10.296219320536	0
6	990	10.315131018525	1
6	991	10.315515018525	0
6	1132	10.920799284035	1
6	1133	10.921175284035	0
6	1275	11.241917114292	1
6	1276	11.242301114292	0
6	1357	11.507975406354	1
6	1358	11.508351406354	0
6	1365	11.711686457105	1
6	1366	11.712070457105	0
7	0	0	0
8	0	0	0
8	255	6.532845620167	1
8	256	6.533253620167	0
8	270	6.534637620167	1
8	273	6.535013620167	0
8	313	6.694875942259	1
8	314	6.695283942259	0
8	326	6.696691942259	1
8	327	6.697075942259	0
8	351	6.778052214972	1
8	352	6.778428214972	0
8	453	6.97419571215	1
8	454	6.97457971215	0
8	468	7.131732258064	1
8	469	7.132116258064	0
8	505	7.35884996881	1
8	506	7.35922596881	0
8	675	8.022719105442	1
8	676	8.023103105442	0
8	718	8.024871105442	1
8	719	8.025247105442	0
8	761	8.179278022278	1
8	765	8.179670022278	0
8	811	8.75870244319	1
8	812	8.75907844319	0
8	1012	10.33200671749	1
8	1013	10.33238271749	0
8	1020	10.431558095401	1
8	1021	10.431942095401	0
8	1155	10.947351424055	1
8	1156	10.947735424055	0
8	1192	11.029230511429	1
8	1193	11.029606511429	0
9	0	0	0
9	223	6.150326622394	1
9	224	6.150734622394	0
9	238	6.152118622394	1
9	241	6.152494622394	0
9	281	6.6138492996	1
9	282	6.6142572996	0
9	294	6.6156652996	1
9	295	6.6160492996	0
9	359	6.800789541306	1
9	360	6.801173541306	0
9	413	6.866891596057	1
9	414	6.867267596057	0
9	513	7.415829062777	1
9	514	7.416213062777	0
9	550	7.726445415449	1
9	551	7.726821415449	0
9	618	7.976056304453	1
9	619	7.976440304453	0
9	661	7.978208304453	1
9	662	7.978584304453	0
9	757	8.179278022278	1
9	764	8.179654022278	0
9	764	8.179654022278	1
9	767	8.180046022278	0
9	1215	11.171357283608	1
9	1216	11.171741283608	0
9	1297	11.277592215095	1
9	1298	11.277968215095	0
9	1305	11.442239573718	1
9	1306	11.442623573718	0
9	1327	11.447028906155	1
9	1328	11.447404906155	0
10	0	0	0
10	24	3.125667666738	1
10	25	3.126075666738	0
10	39	3.127459666738	1
10	42	3.127835666738	0
10	82	3.44881957152	1
10	83	3.44922757152	0
10	95	3.45063557152	1
10	96	3.45101957152	0
10	603	7.919047728752	1
10	604	7.919431728752	0
10	763	8.179278022278	1
10	766	8.179670022278	0
10	877	9.217351787713	1
10	878	9.217727787713	0
10	915	9.994108890896	1
10	920	9.994492890896	0
10	1057	10.465890381786	1
10	1058	10.466266381786	0
10	1072	10.468791713736	1
10	1073	10.469167713736	0
10	1110	10.869193521287	1
10	1111	10.869577521287	0
10	1177	11.004907259377	1
10	1178	11.005283259377	0
10	1200	11.043302654622	1
10	1201	11.043686654622	0
10	1230	11.190247204199	1
10	1231	11.190631204199	0
11	0	0	0
12	0	0	0
12	50	3.297097689749	1
12	51	3.297505689749	0
12	63	3.298913689749	1
12	64	3.299297689749	0
12	152	4.00592740672	1
12	153	4.00633540672	0
12	167	4.00771940672	1
12	170	4.00809540672	0
12	710	8.024495105442	1
12	713	8.024871105442	0
12	826	8.776097993591	1
12	827	8.776473993591	0
12	885	9.383404034547	1
12	886	9.383788034547	0
12	933	9.995237038972	1
12	935	9.995613038972	0
12	945	10.265234292306	1
12	946	10.265618292306	0
12	967	10.286686730918	1
12	968	10.287062730918	0
12	1147	10.942621055086	1
12	1148	10.942997055086	0
12	1245	11.203127051973	1
12	1246	11.203511051973	0
12	1260	11.219332380504	1
12	1261	11.219716380504	0
12	1392	12.086361161167	1
12	1393	12.086737161167	0
13	0	0	0
13	114	3.716086306345	1
13	115	3.716494306345	0
13	127	3.717902306345	1
13	128	3.718286306345	0
13	184	4.127421592944	1
13	185	4.127829592944	0
13	199	4.129213592944	1
13	202	4.129589592944	0
13	580	7.795263617542	1
13	581	7.795639617542	0
13	653	7.977832304453	1
13	656	7.978208304453	0
13	855	9.008392590106	1
13	856	9.008776590106	0
13	907	9.782584064943	1
13	908	9.782960064943	0
13	975	10.294959320536	1
13	976	10.295343320536	0
13	997	10.316015018525	1
13	998	10.316391018525	0
13	1125	10.919915284035	1
13	1126	10.920299284035	0
13	1282	11.242801114292	1
13	1283	11.243177114292	0
13	1350	11.507091406354	1
13	1351	11.507475406354	0
13	1372	11.712570457105	1
13	1373	11.712946457105	0
14	0	0	0
14	18	3.124759666738	1
14	19	3.125167666738	0
14	31	3.126575666738	1
14	32	3.126959666738	0
14	88	3.44972757152	1
14	89	3.45013557152	0
14	103	3.45151957152	1
14	106	3.45189557152	0
14	610	7.919931728752	1
14	611	7.920307728752	0
14	782	8.180170022278	1
14	785	8.180546022278	0
14	870	9.216467787713	1
14	871	9.216851787713	0
14	927	9.994992890896	1
14	934	9.995368890896	0
14	1050	10.465006381786	1
14	1051	10.465390381786	0
14	1065	10.467907713736	1
14	1066	10.468291713736	0
14	1117	10.870077521287	1
14	1118	10.870453521287	0
14	1170	11.004023259377	1
14	1171	11.004407259377	0
14	1207	11.044186654622	1
14	1208	11.044562654622	0
14	1237	11.191131204199	1
14	1238	11.191507204199	0
15	0	0	0
16	0	0	0
17	0	0	0
18	0	0	0
19	0	0	0
20	15	3.124759666738	0
20	28	3.126575666738	0
20	868	9.216467787713	0
20	1048	10.465006381786	0
20	1063	10.467907713736	0
20	1168	11.004023259377	0
21	15	3.124759666738	7504
21	28	3.126575666738	788921
21	28	3.126575666738	788921
21	868	9.216467787713	788921
21	1048	10.465006381786	788921
21	1063	10.467907713736	788921
21	1168	11.004023259377	788921
22	15	3.124759666738	7504
22	28	3.126575666738	7504
22	868	9.216467787713	7504
22	1048	10.465006381786	7504
22	1063	10.467907713736	7504
22	1168	11.004023259377	7504
23	15	3.124759666738	0
23	28	3.126575666738	781417
23	868	9.216467787713	781417
23	1048	10.465006381786	781417
23	1063	10.467907713736	781417
23	1168	11.004023259377	781417
24	18	3.124759666738	44
24	31	3.126575666738	41
24	88	3.44972757152	44
24	103	3.45151957152	40
24	610	7.919931728752	40
24	782	8.180170022278	40
24	870	9.216467787713	41
24	927	9.994992890896	40
24	1050	10.465006381786	41
24	1065	10.467907713736	41
24	1117	10.870077521287	40
24	1170	11.004023259377	41
24	1207	11.044186654622	40
24	1237	11.191131204199	40
25	18	3.124759666738	44
25	31	3.126575666738	41
25	88	3.44972757152	44
25	103	3.45151957152	40
25	610	7.919931728752	40
25	782	8.180170022278	40
25	870	9.216467787713	41
25	927	9.994992890896	40
25	1050	10.465006381786	41
25	1065	10.467907713736	41
25	1117	10.870077521287	40
25	1170	11.004023259377	41
25	1207	11.044186654622	40
25	1237	11.191131204199	40
26	18	3.124759666738	1
26	18	3.124759666738	0
26	31	3.126575666738	1
26	31	3.126575666738	0
26	88	3.44972757152	1
26	88	3.44972757152	0
26	103	3.45151957152	1
26	103	3.45151957152	0
26	610	7.919931728752	1
26	610	7.919931728752	0
26	782	8.180170022278	1
26	782	8.180170022278	0
26	870	9.216467787713	1
26	870	9.216467787713	0
26	927	9.994992890896	1
26	927	9.994992890896	0
26	1050	10.465006381786	1
26	1050	10.465006381786	0
26	1065	10.467907713736	1
26	1065	10.467907713736	0
26	1117	10.870077521287	1
26	1117	10.870077521287	0
26	1170	11.004023259377	1
26	1170	11.004023259377	0
26	1207	11.044186654622	1
26	1207	11.044186654622	0
26	1237	11.191131204199	1
26	1237	11.191131204199	0
27	18	3.124759666738	44
27	31	3.126575666738	41
27	88	3.44972757152	44
27	103	3.45151957152	40
27	610	7.919931728752	40
27	782	8.180170022278	40
27	870	9.216467787713	41
27	927	9.994992890896	40
27	1050	10.465006381786	41
27	1065	10.467907713736	41
27	1117	10.870077521287	40
27	1170	11.004023259377	41
27	1207	11.044186654622	40
27	1237	11.191131204199	40
28	18	3.124759666738	0
28	31	3.126575666738	0
28	88	3.44972757152	0
28	103	3.45151957152	0
28	610	7.919931728752	0
28	782	8.180170022278	0
28	870	9.216467787713	0
28	927	9.994992890896	0
28	1050	10.465006381786	0
28	1065	10.467907713736	0
28	1117	10.870077521287	0
28	1170	11.004023259377	0
28	1207	11.044186654622	0
28	1237	11.191131204199	0
29	18	3.124759666738	51
29	31	3.126575666738	48
29	88	3.44972757152	51
29	103	3.45151957152	47
29	610	7.919931728752	47
29	782	8.180170022278	47
29	870	9.216467787713	48
29	927	9.994992890896	47
29	1050	10.465006381786	48
29	1065	10.467907713736	48
29	1117	10.870077521287	47
29	1170	11.004023259377	48
29	1207	11.044186654622	47
29	1237	11.191131204199	47
30	20	3.125667666738	51
30	33	3.127459666738	48
30	90	3.45063557152	51
30	107	3.45239557152	47
30	612	7.920807728752	47
30	793	8.181046022278	47
30	872	9.217351787713	48
30	936	9.995868890896	47
30	1052	10.465890381786	48
30	1067	10.468791713736	48
30	1119	10.870953521287	47
30	1172	11.004907259377	48
30	1209	11.045062654622	47
30	1239	11.192007204199	47
31	20	3.125667666738	44
31	33	3.127459666738	41
31	90	3.45063557152	44
31	107	3.45239557152	40
31	612	7.920807728752	40
31	793	8.181046022278	40
31	872	9.217351787713	41
31	936	9.995868890896	40
31	1052	10.465890381786	41
31	1067	10.468791713736	41
31	1119	10.870953521287	40
31	1172	11.004907259377	41
31	1209	11.045062654622	40
31	1239	11.192007204199	40
32	22	3.125667666738	781189
32	221	6.150326622394	1537354
32	253	6.532845620167	1632984
33	22	3.125667666738	0
33	221	6.150326622394	0
33	253	6.532845620167	0
34	22	3.125667666738	788694
34	22	3.125667666738	788694
34	35	3.127459666738	788694
34	874	9.217351787713	788696
34	1054	10.465890381786	788697
34	1069	10.468791713736	788698
34	1174	11.004907259377	788699
35	22	3.125667666738	7504
35	35	3.127459666738	7504
36	22	3.125667666738	0
36	35	3.127459666738	0
36	35	3.127459666738	1
36	874	9.217351787713	0
36	874	9.217351787713	0
36	1054	10.465890381786	0
36	1054	10.465890381786	0
36	1069	10.468791713736	0
36	1069	10.468791713736	0
36	1174	11.004907259377	0
36	1174	11.004907259377	0
37	22	3.125667666738	7504
37	35	3.127459666738	7503
37	874	9.217351787713	7504
37	1054	10.465890381786	7504
37	1069	10.468791713736	7504
37	1174	11.004907259377	7504
38	22	3.125667666738	781190
38	35	3.127459666738	781191
38	874	9.217351787713	781192
38	1054	10.465890381786	781193
38	1069	10.468791713736	781194
38	1174	11.004907259377	781195
39	24	3.125667666738	44
39	39	3.127459666738	40
39	82	3.44881957152	44
39	95	3.45063557152	41
39	603	7.919047728752	41
39	763	8.179278022278	42
39	877	9.217351787713	40
39	915	9.994108890896	41
39	1057	10.465890381786	40
39	1072	10.468791713736	40
39	1110	10.869193521287	41
39	1177	11.004907259377	40
39	1200	11.043302654622	41
39	1230	11.190247204199	41
40	24	3.125667666738	44
40	39	3.127459666738	40
40	82	3.44881957152	44
40	95	3.45063557152	41
40	603	7.919047728752	41
40	763	8.179278022278	42
40	877	9.217351787713	40
40	915	9.994108890896	41
40	1057	10.465890381786	40
40	1072	10.468791713736	40
40	1110	10.869193521287	41
40	1177	11.004907259377	40
40	1200	11.043302654622	41
40	1230	11.190247204199	41
41	24	3.125667666738	1
41	24	3.125667666738	0
41	39	3.127459666738	1
41	39	3.127459666738	0
41	82	3.44881957152	1
41	82	3.44881957152	0
41	95	3.45063557152	1
41	95	3.45063557152	0
41	603	7.919047728752	1
41	603	7.919047728752	0
41	763	8.179278022278	1
41	763	8.179278022278	0
41	877	9.217351787713	1
41	877	9.217351787713	0
41	915	9.994108890896	1
41	915	9.994108890896	0
41	1057	10.465890381786	1
41	1057	10.465890381786	0
41	1072	10.468791713736	1
41	1072	10.468791713736	0
41	1110	10.869193521287	1
41	1110	10.869193521287	0
41	1177	11.004907259377	1
41	1177	11.004907259377	0
41	1200	11.043302654622	1
41	1200	11.043302654622	0
41	1230	11.190247204199	1
41	1230	11.190247204199	0
42	24	3.125667666738	44
42	39	3.127459666738	40
42	82	3.44881957152	44
42	95	3.45063557152	41
42	603	7.919047728752	41
42	763	8.179278022278	42
42	877	9.217351787713	40
42	915	9.994108890896	41
42	1057	10.465890381786	40
42	1072	10.468791713736	40
42	1110	10.869193521287	41
42	1177	11.004907259377	40
42	1200	11.043302654622	41
42	1230	11.190247204199	41
43	24	3.125667666738	0
43	39	3.127459666738	0
43	82	3.44881957152	0
43	95	3.45063557152	0
43	603	7.919047728752	0
43	763	8.179278022278	0
43	877	9.217351787713	0
43	915	9.994108890896	0
43	1057	10.465890381786	0
43	1072	10.468791713736	0
43	1110	10.869193521287	0
43	1177	11.004907259377	0
43	1200	11.043302654622	0
43	1230	11.190247204199	0
44	24	3.125667666738	51
44	39	3.127459666738	47
44	82	3.44881957152	51
44	95	3.45063557152	48
44	603	7.919047728752	48
44	763	8.179278022278	49
44	877	9.217351787713	47
44	915	9.994108890896	48
44	1057	10.465890381786	47
44	1072	10.468791713736	47
44	1110	10.869193521287	48
44	1177	11.004907259377	47
44	1200	11.043302654622	48
44	1230	11.190247204199	48
45	26	3.126575666738	51
45	43	3.128335666738	47
45	84	3.44972757152	51
45	97	3.45151957152	48
45	605	7.919931728752	48
45	772	8.180170022278	49
45	879	9.218227787713	47
45	922	9.994992890896	48
45	1059	10.466766381786	47
45	1074	10.469667713736	47
45	1112	10.870077521287	48
45	1179	11.005783259377	47
45	1202	11.044186654622	48
45	1232	11.191131204199	48
46	26	3.126575666738	44
46	43	3.128335666738	40
46	84	3.44972757152	44
46	97	3.45151957152	41
46	605	7.919931728752	41
46	772	8.180170022278	42
46	879	9.218227787713	40
46	922	9.994992890896	41
46	1059	10.466766381786	40
46	1074	10.469667713736	40
46	1112	10.870077521287	41
46	1179	11.005783259377	40
46	1202	11.044186654622	41
46	1232	11.191131204199	41
47	28	3.126575666738	781416
47	45	3.128335666738	781417
47	881	9.218227787713	781417
47	1061	10.466766381786	781417
47	1076	10.469667713736	781417
47	1181	11.005783259377	781417
48	28	3.126575666738	781190
48	45	3.128335666738	781191
48	881	9.218227787713	781192
48	1061	10.466766381786	781193
48	1076	10.469667713736	781194
48	1181	11.005783259377	781195
49	28	3.126575666738	7504
49	45	3.128335666738	7503
49	881	9.218227787713	7504
49	1061	10.466766381786	7504
49	1076	10.469667713736	7504
49	1181	11.005783259377	7504
50	28	3.126575666738	1
50	45	3.128335666738	0
50	868	9.216467787713	1
50	881	9.218227787713	0
50	1048	10.465006381786	1
50	1061	10.466766381786	0
50	1063	10.467907713736	1
50	1076	10.469667713736	0
50	1168	11.004023259377	1
50	1181	11.005783259377	0
51	35	3.127459666738	781190
51	874	9.217351787713	781191
51	1054	10.465890381786	781192
51	1069	10.468791713736	781193
51	1174	11.004907259377	781194
52	35	3.127459666738	781417
52	874	9.217351787713	781417
52	1054	10.465890381786	781417
52	1069	10.468791713736	781417
52	1174	11.004907259377	781417
53	35	3.127459666738	0
54	35	3.127459666738	1072
55	35	3.127459666738	4294967295
56	35	3.127459666738	0
56	874	9.217351787713	0
56	1054	10.465890381786	0
56	1069	10.468791713736	0
56	1174	11.004907259377	0
57	45	3.128335666738	0.00176
57	881	9.218227787713	0.00176
57	1061	10.466766381786	0.00176
57	1076	10.469667713736	0.00176
57	1181	11.005783259377	0.00176
58	45	3.128335666738	0.00022
58	881	9.218227787713	0.0004125
58	1061	10.466766381786	0.0005809375
58	1076	10.469667713736	0.000728320313
58	1181	11.005783259377	0.000857280274
59	45	3.128335666738	0.65647
59	881	9.218227787713	0.57460375
59	1061	10.466766381786	0.50294671875
59	1076	10.469667713736	0.440225761719
59	1181	11.005783259377	0.385326501465
60	45	3.128335666738	2.6261
60	881	9.218227787713	2.2988275
60	1061	10.466766381786	2.0123678125
60	1076	10.469667713736	1.761631367189
60	1181	11.005783259377	1.542163286134
61	45	3.128335666738	1072
61	881	9.218227787713	1072
61	1061	10.466766381786	1608
61	1076	10.469667713736	2144
61	1181	11.005783259377	2680
62	45	3.128335666738	4294967295
62	881	9.218227787713	4294967295
62	1061	10.466766381786	4294967295
62	1076	10.469667713736	4294967295
62	1181	11.005783259377	4294967295
63	45	3.128335666738	0
63	881	9.218227787713	0
63	1061	10.466766381786	0
63	1076	10.469667713736	0
63	1181	11.005783259377	0
64	47	3.297097689749	0
64	60	3.298913689749	0
64	883	9.383404034547	0
64	943	10.265234292306	0
64	1243	11.203127051973	0
64	1258	11.219332380504	0
65	47	3.297097689749	7504
65	60	3.298913689749	832006
65	60	3.298913689749	832006
65	883	9.383404034547	832006
65	943	10.265234292306	832006
65	1243	11.203127051973	832006
65	1258	11.219332380504	832006
66	47	3.297097689749	7504
66	60	3.298913689749	7504
66	883	9.383404034547	7504
66	943	10.265234292306	7504
66	1243	11.203127051973	7504
66	1258	11.219332380504	7504
67	47	3.297097689749	0
67	60	3.298913689749	824502
67	883	9.383404034547	824502
67	943	10.265234292306	824502
67	1243	11.203127051973	824502
67	1258	11.219332380504	824502
68	50	3.297097689749	44
68	63	3.298913689749	41
68	152	4.00592740672	44
68	167	4.00771940672	40
68	710	8.024495105442	40
68	826	8.776097993591	40
68	885	9.383404034547	41
68	933	9.995237038972	40
68	945	10.265234292306	41
68	967	10.286686730918	40
68	1147	10.942621055086	40
68	1245	11.203127051973	41
68	1260	11.219332380504	41
68	1392	12.086361161167	40
69	50	3.297097689749	44
69	63	3.298913689749	41
69	152	4.00592740672	44
69	167	4.00771940672	40
69	710	8.024495105442	40
69	826	8.776097993591	40
69	885	9.383404034547	41
69	933	9.995237038972	40
69	945	10.265234292306	41
69	967	10.286686730918	40
69	1147	10.942621055086	40
69	1245	11.203127051973	41
69	1260	11.219332380504	41
69	1392	12.086361161167	40
70	50	3.297097689749	1
70	50	3.297097689749	0
70	63	3.298913689749	1
70	63	3.298913689749	0
70	152	4.00592740672	1
70	152	4.00592740672	0
70	167	4.00771940672	1
70	167	4.00771940672	0
70	710	8.024495105442	1
70	710	8.024495105442	0
70	826	8.776097993591	1
70	826	8.776097993591	0
70	885	9.383404034547	1
70	885	9.383404034547	0
70	933	9.995237038972	1
70	933	9.995237038972	0
70	945	10.265234292306	1
70	945	10.265234292306	0
70	967	10.286686730918	1
70	967	10.286686730918	0
70	1147	10.942621055086	1
70	1147	10.942621055086	0
70	1245	11.203127051973	1
70	1245	11.203127051973	0
70	1260	11.219332380504	1
70	1260	11.219332380504	0
70	1392	12.086361161167	1
70	1392	12.086361161167	0
71	50	3.297097689749	44
71	63	3.298913689749	41
71	152	4.00592740672	44
71	167	4.00771940672	40
71	710	8.024495105442	40
71	826	8.776097993591	40
71	885	9.383404034547	41
71	933	9.995237038972	40
71	945	10.265234292306	41
71	967	10.286686730918	40
71	1147	10.942621055086	40
71	1245	11.203127051973	41
71	1260	11.219332380504	41
71	1392	12.086361161167	40
72	50	3.297097689749	0
72	63	3.298913689749	0
72	152	4.00592740672	0
72	167	4.00771940672	0
72	710	8.024495105442	0
72	826	8.776097993591	0
72	885	9.383404034547	0
72	933	9.995237038972	0
72	945	10.265234292306	0
72	967	10.286686730918	0
72	1147	10.942621055086	0
72	1245	11.203127051973	0
72	1260	11.219332380504	0
72	1392	12.086361161167	0
73	50	3.297097689749	51
73	63	3.298913689749	48
73	152	4.00592740672	51
73	167	4.00771940672	47
73	710	8.024495105442	47
73	826	8.776097993591	47
73	885	9.383404034547	48
73	933	9.995237038972	47
73	945	10.265234292306	48
73	967	10.286686730918	47
73	1147	10.942621055086	47
73	1245	11.203127051973	48
73	1260	11.219332380504	48
73	1392	12.086361161167	47
74	52	3.298005689749	51
74	65	3.299797689749	48
74	154	4.00683540672	51
74	171	4.00859540672	47
74	721	8.025371105442	47
74	828	8.776973993591	47
74	887	9.384288034547	48
74	939	9.996113038972	47
74	947	10.266118292306	48
74	969	10.287562730918	47
74	1149	10.943497055086	47
74	1247	11.204011051973	48
74	1262	11.220216380504	48
74	1394	12.087237161167	47
75	52	3.298005689749	44
75	65	3.299797689749	41
75	154	4.00683540672	44
75	171	4.00859540672	40
75	721	8.025371105442	40
75	828	8.776973993591	40
75	887	9.384288034547	41
75	939	9.996113038972	40
75	947	10.266118292306	41
75	969	10.287562730918	40
75	1149	10.943497055086	40
75	1247	11.204011051973	41
75	1262	11.220216380504	41
75	1394	12.087237161167	40
76	54	3.298005689749	824274
76	317	6.695783942259	1673718
76	379	6.848986859828	1712019
77	54	3.298005689749	0
77	317	6.695783942259	0
77	379	6.848986859828	0
78	54	3.298005689749	831779
78	54	3.298005689749	831779
78	67	3.299797689749	831779
78	889	9.384288034547	831781
78	949	10.266118292306	831782
78	1249	11.204011051973	831783
78	1264	11.220216380504	831784
79	54	3.298005689749	7504
79	67	3.299797689749	7504
80	54	3.298005689749	0
80	67	3.299797689749	0
80	67	3.299797689749	1
80	889	9.384288034547	0
80	889	9.384288034547	0
80	949	10.266118292306	0
80	949	10.266118292306	0
80	1249	11.204011051973	0
80	1249	11.204011051973	0
80	1264	11.220216380504	0
80	1264	11.220216380504	0
81	54	3.298005689749	7504
81	67	3.299797689749	7503
81	889	9.384288034547	7504
81	949	10.266118292306	7504
81	1249	11.204011051973	7504
81	1264	11.220216380504	7504
82	54	3.298005689749	824275
82	67	3.299797689749	824276
82	889	9.384288034547	824277
82	949	10.266118292306	824278
82	1249	11.204011051973	824279
82	1264	11.220216380504	824280
83	56	3.298005689749	44
83	71	3.299797689749	40
83	146	4.00501940672	44
83	159	4.00683540672	41
83	691	8.023603105442	42
83	819	8.775213993591	41
83	892	9.384288034547	40
83	919	9.994353038972	41
83	952	10.266118292306	40
83	960	10.285802730918	41
83	1140	10.941737055086	41
83	1252	11.204011051973	40
83	1267	11.220216380504	40
83	1385	12.085477161167	41
84	56	3.298005689749	44
84	71	3.299797689749	40
84	146	4.00501940672	44
84	159	4.00683540672	41
84	691	8.023603105442	42
84	819	8.775213993591	41
84	892	9.384288034547	40
84	919	9.994353038972	41
84	952	10.266118292306	40
84	960	10.285802730918	41
84	1140	10.941737055086	41
84	1252	11.204011051973	40
84	1267	11.220216380504	40
84	1385	12.085477161167	41
85	56	3.298005689749	1
85	56	3.298005689749	0
85	71	3.299797689749	1
85	71	3.299797689749	0
85	146	4.00501940672	1
85	146	4.00501940672	0
85	159	4.00683540672	1
85	159	4.00683540672	0
85	691	8.023603105442	1
85	691	8.023603105442	0
85	819	8.775213993591	1
85	819	8.775213993591	0
85	892	9.384288034547	1
85	892	9.384288034547	0
85	919	9.994353038972	1
85	919	9.994353038972	0
85	952	10.266118292306	1
85	952	10.266118292306	0
85	960	10.285802730918	1
85	960	10.285802730918	0
85	1140	10.941737055086	1
85	1140	10.941737055086	0
85	1252	11.204011051973	1
85	1252	11.204011051973	0
85	1267	11.220216380504	1
85	1267	11.220216380504	0
85	1385	12.085477161167	1
85	1385	12.085477161167	0
86	56	3.298005689749	44
86	71	3.299797689749	40
86	146	4.00501940672	44
86	159	4.00683540672	41
86	691	8.023603105442	42
86	819	8.775213993591	41
86	892	9.384288034547	40
86	919	9.994353038972	41
86	952	10.266118292306	40
86	960	10.285802730918	41
86	1140	10.941737055086	41
86	1252	11.204011051973	40
86	1267	11.220216380504	40
86	1385	12.085477161167	41
87	56	3.298005689749	0
87	71	3.299797689749	0
87	146	4.00501940672	0
87	159	4.00683540672	0
87	691	8.023603105442	0
87	819	8.775213993591	0
87	892	9.384288034547	0
87	919	9.994353038972	0
87	952	10.266118292306	0
87	960	10.285802730918	0
87	1140	10.941737055086	0
87	1252	11.204011051973	0
87	1267	11.220216380504	0
87	1385	12.085477161167	0
88	56	3.298005689749	51
88	71	3.299797689749	47
88	146	4.00501940672	51
88	159	4.00683540672	48
88	691	8.023603105442	49
88	819	8.775213993591	48
88	892	9.384288034547	47
88	919	9.994353038972	48
88	952	10.266118292306	47
88	960	10.285802730918	48
88	1140	10.941737055086	48
88	1252	11.204011051973	47
88	1267	11.220216380504	47
88	1385	12.085477161167	48
89	58	3.298913689749	51
89	75	3.300673689749	47
89	148	4.00592740672	51
89	161	4.00771940672	48
89	700	8.024495105442	49
89	821	8.776097993591	48
89	894	9.385164034547	47
89	928	9.995237038972	48
89	954	10.266994292306	47
89	962	10.286686730918	48
89	1142	10.942621055086	48
89	1254	11.204887051973	47
89	1269	11.221092380504	47
89	1387	12.086361161167	48
90	58	3.298913689749	44
90	75	3.300673689749	40
90	148	4.00592740672	44
90	161	4.00771940672	41
90	700	8.024495105442	42
90	821	8.776097993591	41
90	894	9.385164034547	40
90	928	9.995237038972	41
90	954	10.266994292306	40
90	962	10.286686730918	41
[...]
361	1031	10.433318095401	0.00176
361	1166	10.949111424055	0.00176
362	340	6.698451942259	0.00022
362	464	6.97595571215	0.0004125
362	479	7.133492258064	0.0005809375
362	698	8.024479105442	0.000728320313
362	796	8.181046022278	0.000858280274
362	1031	10.433318095401	0.00097099524
362	1166	10.949111424055	0.001069620835
363	340	6.698451942259	0.65647
363	464	6.97595571215	0.57460375
363	479	7.133492258064	0.50294671875
363	698	8.024479105442	0.440225761719
363	796	8.181046022278	0.385327501465
363	1031	10.433318095401	0.337274278748
363	1166	10.949111424055	0.2952136195
364	340	6.698451942259	2.6261
364	464	6.97595571215	2.2988275
364	479	7.133492258064	2.0123678125
364	698	8.024479105442	1.761631367189
364	796	8.181046022278	1.542168286134
364	1031	10.433318095401	1.350068110232
364	1166	10.949111424055	1.181924098835
365	340	6.698451942259	1072
365	464	6.97595571215	1608
365	479	7.133492258064	2144
365	698	8.024479105442	2680
365	796	8.181046022278	3216
365	1031	10.433318095401	1072
365	1166	10.949111424055	1608
366	340	6.698451942259	4294967295
366	464	6.97595571215	4294967295
366	479	7.133492258064	4294967295
366	698	8.024479105442	4294967295
366	796	8.181046022278	4294967295
366	1031	10.433318095401	4294967295
366	1166	10.949111424055	4294967295
367	340	6.698451942259	0
367	464	6.97595571215	0
367	479	7.133492258064	0
367	698	8.024479105442	0
367	796	8.181046022278	0
367	1031	10.433318095401	0
367	1166	10.949111424055	0
368	372	6.848078859828	0
368	385	6.849894859828	0
368	526	7.604463969848	0
368	586	7.879679888302	0
368	625	7.976940304453	0
368	730	8.090866937101	0
368	1033	10.43595379754	0
368	1333	11.488627708121	0
369	372	6.848078859828	7504
369	385	6.849894859828	1719751
369	385	6.849894859828	1719751
369	526	7.604463969848	1719751
369	586	7.879679888302	1719751
369	625	7.976940304453	1719751
369	730	8.090866937101	1719751
369	1033	10.43595379754	1719751
369	1333	11.488627708121	1719751
370	372	6.848078859828	7504
370	385	6.849894859828	7504
370	526	7.604463969848	7504
370	586	7.879679888302	7504
370	625	7.976940304453	7504
370	730	8.090866937101	7504
370	1033	10.43595379754	7504
370	1333	11.488627708121	7504
371	372	6.848078859828	0
371	385	6.849894859828	1712247
371	526	7.604463969848	1712247
371	586	7.879679888302	1712247
371	625	7.976940304453	1712247
371	730	8.090866937101	1712247
371	1033	10.43595379754	1712247
371	1333	11.488627708121	1712247
372	375	6.848078859828	44
372	388	6.849894859828	41
372	428	6.914082840541	44
372	443	6.915874840541	40
372	490	7.288687915525	40
372	528	7.604463969848	41
372	565	7.76361695999	40
372	588	7.879679888302	41
372	632	7.976940304453	42
372	709	8.024495105442	40
372	732	8.090866937101	41
372	841	8.869606706625	40
372	1035	10.43595379754	41
372	1087	10.533367843013	40
372	1102	10.75688436964	40
372	1335	11.488627708121	41
373	375	6.848078859828	44
373	388	6.849894859828	41
373	428	6.914082840541	44
373	443	6.915874840541	40
373	490	7.288687915525	40
373	528	7.604463969848	41
373	565	7.76361695999	40
373	588	7.879679888302	41
373	632	7.976940304453	42
373	709	8.024495105442	40
373	732	8.090866937101	41
373	841	8.869606706625	40
373	1035	10.43595379754	41
373	1087	10.533367843013	40
373	1102	10.75688436964	40
373	1335	11.488627708121	41
374	375	6.848078859828	1
374	375	6.848078859828	0
374	388	6.849894859828	1
374	388	6.849894859828	0
374	428	6.914082840541	1
374	428	6.914082840541	0
374	443	6.915874840541	1
374	443	6.915874840541	0
374	490	7.288687915525	1
374	490	7.288687915525	0
374	528	7.604463969848	1
374	528	7.604463969848	0
374	565	7.76361695999	1
374	565	7.76361695999	0
374	588	7.879679888302	1
374	588	7.879679888302	0
374	632	7.976940304453	1
374	632	7.976940304453	0
374	709	8.024495105442	1
374	709	8.024495105442	0
374	732	8.090866937101	1
374	732	8.090866937101	0
374	841	8.869606706625	1
374	841	8.869606706625	0
374	1035	10.43595379754	1
374	1035	10.43595379754	0
374	1087	10.533367843013	1
374	1087	10.533367843013	0
374	1102	10.75688436964	1
374	1102	10.75688436964	0
374	1335	11.488627708121	1
374	1335	11.488627708121	0
375	375	6.848078859828	44
375	388	6.849894859828	41
375	428	6.914082840541	44
375	443	6.915874840541	40
375	490	7.288687915525	40
375	528	7.604463969848	41
375	565	7.76361695999	40
375	588	7.879679888302	41
375	632	7.976940304453	42
375	709	8.024495105442	40
375	732	8.090866937101	41
375	841	8.869606706625	40
375	1035	10.43595379754	41
375	1087	10.533367843013	40
375	1102	10.75688436964	40
375	1335	11.488627708121	41
376	375	6.848078859828	0
376	388	6.849894859828	0
376	428	6.914082840541	0
376	443	6.915874840541	0
376	490	7.288687915525	0
376	528	7.604463969848	0
376	565	7.76361695999	0
376	588	7.879679888302	0
376	632	7.976940304453	0
376	709	8.024495105442	0
376	732	8.090866937101	0
376	841	8.869606706625	0
376	1035	10.43595379754	0
376	1087	10.533367843013	0
376	1102	10.75688436964	0
376	1335	11.488627708121	0
377	375	6.848078859828	51
377	388	6.849894859828	48
377	428	6.914082840541	51
377	443	6.915874840541	47
377	490	7.288687915525	47
377	528	7.604463969848	48
377	565	7.76361695999	47
377	588	7.879679888302	48
377	632	7.976940304453	49
377	709	8.024495105442	47
377	732	8.090866937101	48
377	841	8.869606706625	47
377	1035	10.43595379754	48
377	1087	10.533367843013	47
377	1102	10.75688436964	47
377	1335	11.488627708121	48
378	377	6.848986859828	51
378	390	6.850778859828	48
378	430	6.914990840541	51
378	447	6.916750840541	47
378	492	7.289563915525	47
378	530	7.605347969848	48
378	567	7.76449295999	47
378	590	7.880563888302	48
378	642	7.977832304453	49
378	720	8.025371105442	47
378	734	8.091750937101	48
378	843	8.870482706625	47
378	1037	10.43683779754	48
378	1089	10.534243843013	47
378	1104	10.75776036964	47
378	1337	11.489511708121	48
379	377	6.848986859828	44
379	390	6.850778859828	41
379	430	6.914990840541	44
379	447	6.916750840541	40
379	492	7.289563915525	40
379	530	7.605347969848	41
379	567	7.76449295999	40
379	590	7.880563888302	41
379	642	7.977832304453	42
379	720	8.025371105442	40
379	734	8.091750937101	41
379	843	8.870482706625	40
379	1037	10.43683779754	41
379	1089	10.534243843013	40
379	1104	10.75776036964	40
379	1337	11.489511708121	41
380	379	6.848986859828	1719524
380	379	6.848986859828	1719524
380	392	6.850778859828	1719524
380	532	7.605347969848	1719526
380	592	7.880563888302	1719527
380	646	7.977832304453	1719529
380	736	8.091750937101	1719530
380	1039	10.43683779754	1719531
380	1339	11.489511708121	1719532
381	379	6.848986859828	7504
381	392	6.850778859828	7504
382	379	6.848986859828	0
382	392	6.850778859828	0
382	392	6.850778859828	1
382	532	7.605347969848	0
382	532	7.605347969848	0
382	592	7.880563888302	0
382	592	7.880563888302	0
382	646	7.977832304453	0
382	646	7.977832304453	0
382	736	8.091750937101	0
382	736	8.091750937101	0
382	1039	10.43683779754	0
382	1039	10.43683779754	0
382	1339	11.489511708121	0
382	1339	11.489511708121	0
383	379	6.848986859828	7504
383	392	6.850778859828	7503
383	532	7.605347969848	7504
383	592	7.880563888302	7504
383	646	7.977832304453	7504
383	736	8.091750937101	7504
383	1039	10.43683779754	7504
383	1339	11.489511708121	7504
384	379	6.848986859828	1712020
384	392	6.850778859828	1712021
384	532	7.605347969848	1712022
384	592	7.880563888302	1712023
384	646	7.977832304453	1712025
384	736	8.091750937101	1712026
384	1039	10.43683779754	1712027
384	1339	11.489511708121	1712028
385	381	6.848986859828	44
385	396	6.850778859828	40
385	422	6.913174840541	44
385	435	6.914990840541	41
385	483	7.287803915525	41
385	535	7.605347969848	40
385	558	7.76273295999	41
385	595	7.880563888302	40
385	652	7.977832304453	40
385	689	8.023603105442	42
385	739	8.091750937101	40
385	834	8.868722706625	41
385	1042	10.43683779754	40
385	1080	10.532483843013	41
385	1095	10.75600036964	41
385	1342	11.489511708121	40
386	381	6.848986859828	44
386	396	6.850778859828	40
386	422	6.913174840541	44
386	435	6.914990840541	41
386	483	7.287803915525	41
386	535	7.605347969848	40
386	558	7.76273295999	41
386	595	7.880563888302	40
386	652	7.977832304453	40
386	689	8.023603105442	42
386	739	8.091750937101	40
386	834	8.868722706625	41
386	1042	10.43683779754	40
386	1080	10.532483843013	41
386	1095	10.75600036964	41
386	1342	11.489511708121	40
387	381	6.848986859828	1
387	381	6.848986859828	0
387	396	6.850778859828	1
387	396	6.850778859828	0
387	422	6.913174840541	1
387	422	6.913174840541	0
387	435	6.914990840541	1
387	435	6.914990840541	0
387	483	7.287803915525	1
387	483	7.287803915525	0
387	535	7.605347969848	1
387	535	7.605347969848	0
387	558	7.76273295999	1
387	558	7.76273295999	0
387	595	7.880563888302	1
387	595	7.880563888302	0
387	652	7.977832304453	1
387	652	7.977832304453	0
387	689	8.023603105442	1
387	689	8.023603105442	0
387	739	8.091750937101	1
387	739	8.091750937101	0
387	834	8.868722706625	1
387	834	8.868722706625	0
387	1042	10.43683779754	1
387	1042	10.43683779754	0
387	1080	10.532483843013	1
387	1080	10.532483843013	0
387	1095	10.75600036964	1
387	1095	10.75600036964	0
387	1342	11.489511708121	1
387	1342	11.489511708121	0
388	381	6.848986859828	44
388	396	6.850778859828	40
388	422	6.913174840541	44
388	435	6.914990840541	41
388	483	7.287803915525	41
388	535	7.605347969848	40
388	558	7.76273295999	41
388	595	7.880563888302	40
388	652	7.977832304453	40
388	689	8.023603105442	42
388	739	8.091750937101	40
388	834	8.868722706625	41
388	1042	10.43683779754	40
388	1080	10.532483843013	41
388	1095	10.75600036964	41
388	1342	11.489511708121	40
389	381	6.848986859828	0
389	396	6.850778859828	0
389	422	6.913174840541	0
389	435	6.914990840541	0
389	483	7.287803915525	0
389	535	7.605347969848	0
389	558	7.76273295999	0
389	595	7.880563888302	0
389	652	7.977832304453	0
389	689	8.023603105442	0
389	739	8.091750937101	0
389	834	8.868722706625	0
389	1042	10.43683779754	0
389	1080	10.532483843013	0
389	1095	10.75600036964	0
389	1342	11.489511708121	0
390	381	6.848986859828	51
390	396	6.850778859828	47
390	422	6.913174840541	51
390	435	6.914990840541	48
390	483	7.287803915525	48
390	535	7.605347969848	47
390	558	7.76273295999	48
390	595	7.880563888302	47
390	652	7.977832304453	47
390	689	8.023603105442	49
390	739	8.091750937101	47
390	834	8.868722706625	48
390	1042	10.43683779754	47
390	1080	10.532483843013	48
390	1095	10.75600036964	48
390	1342	11.489511708121	47
391	383	6.849894859828	51
391	400	6.851654859828	47
391	424	6.914082840541	51
391	437	6.915874840541	48
391	485	7.288687915525	48
391	537	7.606223969848	47
391	560	7.76361695999	48
391	597	7.881439888302	47
391	663	7.978708304453	47
391	699	8.024495105442	49
391	741	8.092626937101	47
391	836	8.869606706625	48
391	1044	10.43771379754	47
391	1082	10.533367843013	48
391	1097	10.75688436964	48
391	1344	11.490387708121	47
392	383	6.849894859828	44
392	400	6.851654859828	40
392	424	6.914082840541	44
392	437	6.915874840541	41
392	485	7.288687915525	41
392	537	7.606223969848	40
392	560	7.76361695999	41
392	597	7.881439888302	40
392	663	7.978708304453	40
392	699	8.024495105442	42
392	741	8.092626937101	40
392	836	8.869606706625	41
392	1044	10.43771379754	40
392	1082	10.533367843013	41
392	1097	10.75688436964	41
392	1344	11.490387708121	40
393	385	6.849894859828	1712246
393	402	6.851654859828	1712247
393	539	7.606223969848	1712247
393	599	7.881439888302	1712247
393	667	7.978708304453	1712247
393	743	8.092626937101	1712247
393	1046	10.43771379754	1712247
393	1346	11.490387708121	1712247
394	385	6.849894859828	1712020
394	402	6.851654859828	1712021
394	539	7.606223969848	1712022
394	599	7.881439888302	1712023
394	667	7.978708304453	1712025
394	743	8.092626937101	1712026
394	1046	10.43771379754	1712027
394	1346	11.490387708121	1712028
395	385	6.849894859828	7504
395	402	6.851654859828	7503
395	539	7.606223969848	7504
395	599	7.881439888302	7504
395	667	7.978708304453	7504
395	743	8.092626937101	7504
395	1046	10.43771379754	7504
395	1346	11.490387708121	7504
396	385	6.849894859828	1
396	402	6.851654859828	0
396	526	7.604463969848	1
396	539	7.606223969848	0
396	586	7.879679888302	1
396	599	7.881439888302	0
396	625	7.976940304453	2
396	667	7.978708304453	0
396	730	8.090866937101	1
396	743	8.092626937101	0
396	1033	10.43595379754	1
396	1046	10.43771379754	0
396	1333	11.488627708121	1
396	1346	11.490387708121	0
397	392	6.850778859828	1712020
397	532	7.605347969848	1712021
397	592	7.880563888302	1712022
397	646	7.977832304453	1712023
397	736	8.091750937101	1712025
397	1039	10.43683779754	1712026
397	1339	11.489511708121	1712027
398	392	6.850778859828	1712247
398	532	7.605347969848	1712247
398	592	7.880563888302	1712247
398	646	7.977832304453	1712247
398	736	8.091750937101	1712247
398	1039	10.43683779754	1712247
398	1339	11.489511708121	1712247
399	392	6.850778859828	0
400	392	6.850778859828	1072
401	392	6.850778859828	4294967295
402	392	6.850778859828	0
402	532	7.605347969848	0
402	592	7.880563888302	0
402	646	7.977832304453	0
402	736	8.091750937101	0
402	1039	10.43683779754	0
402	1339	11.489511708121	0
403	402	6.851654859828	0.00176
403	539	7.606223969848	0.00176
403	599	7.881439888302	0.00176
403	667	7.978708304453	0.001768
403	743	8.092626937101	0.00176
403	1046	10.43771379754	0.00176
403	1346	11.490387708121	0.00176
404	402	6.851654859828	0.00022
404	539	7.606223969848	0.0004125
404	599	7.881439888302	0.0005809375
404	667	7.978708304453	0.000729320313
404	743	8.092626937101	0.000858155274
404	1046	10.43771379754	0.000970885865
404	1346	11.490387708121	0.001069525132
405	402	6.851654859828	0.65647
405	539	7.606223969848	0.57460375
405	599	7.881439888302	0.50294671875
405	667	7.978708304453	0.440226761719
405	743	8.092626937101	0.385327251465
405	1046	10.43771379754	0.337274075623
405	1346	11.490387708121	0.295213455437
406	402	6.851654859828	2.6261
406	539	7.606223969848	2.2988275
406	599	7.881439888302	2.0123678125
406	667	7.978708304453	1.761636367189
406	743	8.092626937101	1.542167161134
406	1046	10.43771379754	1.350067188357
406	1346	11.490387708121	1.18192334688
407	402	6.851654859828	1072
407	539	7.606223969848	1608
407	599	7.881439888302	2144
407	667	7.978708304453	2680
407	743	8.092626937101	3216
407	1046	10.43771379754	1072
407	1346	11.490387708121	1608
408	402	6.851654859828	4294967295
408	539	7.606223969848	4294967295
408	599	7.881439888302	4294967295
408	667	7.978708304453	4294967295
408	743	8.092626937101	4294967295
408	1046	10.43771379754	4294967295
408	1346	11.490387708121	4294967295
409	402	6.851654859828	0
409	539	7.606223969848	0
409	599	7.881439888302	0
409	667	7.978708304453	0
409	743	8.092626937101	0
409	1046	10.43771379754	0
409	1346	11.490387708121	0
410	419	6.913174840541	0
410	432	6.914990840541	0
410	481	7.287803915525	0
410	556	7.76273295999	0
410	682	8.023603105442	0
410	832	8.868722706625	0
410	1078	10.532483843013	0
410	1093	10.75600036964	0
411	419	6.913174840541	7504
411	432	6.914990840541	1736025
411	432	6.914990840541	1736025
411	481	7.287803915525	1736025
411	556	7.76273295999	1736025
411	682	8.023603105442	1736025
411	832	8.868722706625	1736025
411	1078	10.532483843013	1736025
411	1093	10.75600036964	1736025
412	419	6.913174840541	7504
412	432	6.914990840541	7504
412	481	7.287803915525	7504
412	556	7.76273295999	7504
412	682	8.023603105442	7504
412	832	8.868722706625	7504
412	1078	10.532483843013	7504
412	1093	10.75600036964	7504
413	419	6.913174840541	0
413	432	6.914990840541	1728521
413	481	7.287803915525	1728521
413	556	7.76273295999	1728521
413	682	8.023603105442	1728521
413	832	8.868722706625	1728521
413	1078	10.532483843013	1728521
413	1093	10.75600036964	1728521
414	426	6.914082840541	1735798
414	426	6.914082840541	1735798
414	439	6.915874840541	1735798
414	487	7.288687915525	1735800
414	562	7.76361695999	1735801
414	703	8.024495105442	1735803
414	838	8.869606706625	1735804
414	1084	10.533367843013	1735805
414	1099	10.75688436964	1735806
415	426	6.914082840541	7504
415	439	6.915874840541	7504
416	426	6.914082840541	0
416	439	6.915874840541	0
416	439	6.915874840541	1
416	487	7.288687915525	0
416	487	7.288687915525	0
416	562	7.76361695999	0
416	562	7.76361695999	0
416	703	8.024495105442	0
416	703	8.024495105442	0
416	838	8.869606706625	0
416	838	8.869606706625	0
416	1084	10.533367843013	0
416	1084	10.533367843013	0
416	1099	10.75688436964	0
416	1099	10.75688436964	0
417	426	6.914082840541	7504
417	439	6.915874840541	7503
417	487	7.288687915525	7504
417	562	7.76361695999	7504
417	703	8.024495105442	7504
417	838	8.869606706625	7504
417	1084	10.533367843013	7504
417	1099	10.75688436964	7504
418	426	6.914082840541	1728294
418	439	6.915874840541	1728295
418	487	7.288687915525	1728296
418	562	7.76361695999	1728297
418	703	8.024495105442	1728299
418	838	8.869606706625	1728300
418	1084	10.533367843013	1728301
418	1099	10.75688436964	1728302
419	432	6.914990840541	1728520
419	449	6.916750840541	1728521
419	494	7.289563915525	1728521
419	569	7.76449295999	1728521
419	724	8.025371105442	1728521
419	845	8.870482706625	1728521
419	1091	10.534243843013	1728521
419	1106	10.75776036964	1728521
420	432	6.914990840541	1728294
420	449	6.916750840541	1728295
420	494	7.289563915525	1728296
420	569	7.76449295999	1728297
420	724	8.025371105442	1728299
420	845	8.870482706625	1728300
420	1091	10.534243843013	1728301
420	1106	10.75776036964	1728302
421	432	6.914990840541	7504
421	449	6.916750840541	7503
421	494	7.289563915525	7504
421	569	7.76449295999	7504
421	724	8.025371105442	7504
421	845	8.870482706625	7504
421	1091	10.534243843013	7504
421	1106	10.75776036964	7504
422	432	6.914990840541	1
422	449	6.916750840541	0
422	481	7.287803915525	1
422	494	7.289563915525	0
422	556	7.76273295999	1
422	569	7.76449295999	0
422	682	8.023603105442	2
422	724	8.025371105442	0
422	832	8.868722706625	1
422	845	8.870482706625	0
422	1078	10.532483843013	1
422	1091	10.534243843013	0
422	1093	10.75600036964	1
422	1106	10.75776036964	0
423	439	6.915874840541	1728294
423	487	7.288687915525	1728295
423	562	7.76361695999	1728296
423	703	8.024495105442	1728297
423	838	8.869606706625	1728299
423	1084	10.533367843013	1728300
423	1099	10.75688436964	1728301
424	439	6.915874840541	1728521
424	487	7.288687915525	1728521
424	562	7.76361695999	1728521
424	703	8.024495105442	1728521
424	838	8.869606706625	1728521
424	1084	10.533367843013	1728521
424	1099	10.75688436964	1728521
425	439	6.915874840541	0
426	439	6.915874840541	1072
427	439	6.915874840541	4294967295
428	439	6.915874840541	0
428	487	7.288687915525	0
428	562	7.76361695999	0
428	703	8.024495105442	0
428	838	8.869606706625	0
428	1084	10.533367843013	0
428	1099	10.75688436964	0
429	449	6.916750840541	0.00176
429	494	7.289563915525	0.00176
429	569	7.76449295999	0.00176
429	724	8.025371105442	0.001768
429	845	8.870482706625	0.00176
429	1091	10.534243843013	0.00176
429	1106	10.75776036964	0.00176
430	449	6.916750840541	0.00022
430	494	7.289563915525	0.0004125
430	569	7.76449295999	0.0005809375
430	724	8.025371105442	0.000729320313
430	845	8.870482706625	0.000858155274
430	1091	10.534243843013	0.000970885865
430	1106	10.75776036964	0.001069525132
431	449	6.916750840541	0.65647
431	494	7.289563915525	0.57460375
431	569	7.76449295999	0.50294671875
431	724	8.025371105442	0.440226761719
431	845	8.870482706625	0.385327251465
431	1091	10.534243843013	0.337274075623
431	1106	10.75776036964	0.295213455437
432	449	6.916750840541	2.6261
432	494	7.289563915525	2.2988275
432	569	7.76449295999	2.0123678125
432	724	8.025371105442	1.761636367189
432	845	8.870482706625	1.542167161134
432	1091	10.534243843013	1.350067188357
432	1106	10.75776036964	1.18192334688
433	449	6.916750840541	1072
433	494	7.289563915525	1608
433	569	7.76449295999	2144
433	724	8.025371105442	2680
433	845	8.870482706625	3216
433	1091	10.534243843013	1072
433	1106	10.75776036964	1608
434	449	6.916750840541	4294967295
434	494	7.289563915525	4294967295
434	569	7.76449295999	4294967295
434	724	8.025371105442	4294967295
434	845	8.870482706625	4294967295
434	1091	10.534243843013	4294967295
434	1106	10.75776036964	4294967295
435	449	6.916750840541	0
435	494	7.289563915525	0
435	569	7.76449295999	0
435	724	8.025371105442	0
435	845	8.870482706625	0
435	1091	10.534243843013	0
435	1106	10.75776036964	0

