version 2
run JOIN_after_BROADCAST-0-20211122-16:57:56-12644
attr configname JOIN_after_BROADCAST
attr datetime 20211122-16:57:56
attr experiment JOIN_after_BROADCAST
attr inifile omnetpp.ini
attr iterationvars ""
attr iterationvarsf ""
attr measurement ""
attr network scenario
attr processid 12644
attr repetition 0
attr replication #0
attr resultdir results
attr runnumber 0
attr seedset 0
param **.client3.app[0].join 3.0
param **.client3.app[0].broadcast 0.0
param **.ppp[*].ppp.queue.typename "\"DropTailQueue\""
param **.tcp.typename "\"Tcp\""
param **.tcp.nagleEnabled false
param **.cli*.app[*].nPar 5
param **.cli*.app[*].fPar 0
param **.numApps 1
param **.client0.app[*].typename "\"Node\""
param **.client0.app[0].localPort 1000
param **.client0.app[0].localPortL 1234
param **.client0.app[0].connectAddress "\"\""
param **.client0.app[0].connectPort 1234
param **.client1.app[*].typename "\"Node\""
param **.client1.app[0].localPort 1001
param **.client1.app[0].localPortL 1234
param **.client1.app[0].connectAddress "\"\""
param **.client1.app[0].connectPort 1234
param **.client2.app[*].typename "\"Node\""
param **.client2.app[0].localPort 1002
param **.client2.app[0].localPortL 1234
param **.client2.app[0].connectAddress "\"\""
param **.client2.app[0].connectPort 1234
param **.client3.app[*].typename "\"Node\""
param **.client3.app[0].localPort 1003
param **.client3.app[0].localPortL 1234
param **.client3.app[0].connectAddress "\"\""
param **.client3.app[0].connectPort 1234
param **.client4.app[*].typename "\"Node\""
param **.client4.app[0].localPort 1004
param **.client4.app[0].localPortL 1234
param **.client4.app[0].connectAddress "\"\""
param **.client4.app[0].connectPort 1234

vector 0 scenario.client0.ppp[0].ppp transmissionState:vector ETV
attr interpolationmode sample-hold
attr source transmissionStateChanged
attr title "tx state, vector"
vector 1 scenario.client0.ppp[1].ppp transmissionState:vector ETV
attr interpolationmode sample-hold
attr source transmissionStateChanged
attr title "tx state, vector"
vector 2 scenario.client0.ppp[2].ppp transmissionState:vector ETV
attr interpolationmode sample-hold
attr source transmissionStateChanged
attr title "tx state, vector"
vector 3 scenario.client0.ppp[3].ppp transmissionState:vector ETV
attr interpolationmode sample-hold
attr source transmissionStateChanged
attr title "tx state, vector"
vector 4 scenario.client1.ppp[0].ppp transmissionState:vector ETV
attr interpolationmode sample-hold
attr source transmissionStateChanged
attr title "tx state, vector"
vector 5 scenario.client1.ppp[1].ppp transmissionState:vector ETV
attr interpolationmode sample-hold
attr source transmissionStateChanged
attr title "tx state, vector"
vector 6 scenario.client1.ppp[2].ppp transmissionState:vector ETV
attr interpolationmode sample-hold
attr source transmissionStateChanged
attr title "tx state, vector"
vector 7 scenario.client1.ppp[3].ppp transmissionState:vector ETV
attr interpolationmode sample-hold
attr source transmissionStateChanged
attr title "tx state, vector"
vector 8 scenario.client2.ppp[0].ppp transmissionState:vector ETV
attr interpolationmode sample-hold
attr source transmissionStateChanged
attr title "tx state, vector"
vector 9 scenario.client2.ppp[1].ppp transmissionState:vector ETV
attr interpolationmode sample-hold
attr source transmissionStateChanged
attr title "tx state, vector"
vector 10 scenario.client2.ppp[2].ppp transmissionState:vector ETV
attr interpolationmode sample-hold
attr source transmissionStateChanged
attr title "tx state, vector"
vector 11 scenario.client2.ppp[3].ppp transmissionState:vector ETV
attr interpolationmode sample-hold
attr source transmissionStateChanged
attr title "tx state, vector"
vector 12 scenario.client3.ppp[0].ppp transmissionState:vector ETV
attr interpolationmode sample-hold
attr source transmissionStateChanged
attr title "tx state, vector"
vector 13 scenario.client3.ppp[1].ppp transmissionState:vector ETV
attr interpolationmode sample-hold
attr source transmissionStateChanged
attr title "tx state, vector"
vector 14 scenario.client3.ppp[2].ppp transmissionState:vector ETV
attr interpolationmode sample-hold
attr source transmissionStateChanged
attr title "tx state, vector"
vector 15 scenario.client3.ppp[3].ppp transmissionState:vector ETV
attr interpolationmode sample-hold
attr source transmissionStateChanged
attr title "tx state, vector"
vector 16 scenario.client4.ppp[0].ppp transmissionState:vector ETV
attr interpolationmode sample-hold
attr source transmissionStateChanged
attr title "tx state, vector"
vector 17 scenario.client4.ppp[1].ppp transmissionState:vector ETV
attr interpolationmode sample-hold
attr source transmissionStateChanged
attr title "tx state, vector"
vector 18 scenario.client4.ppp[2].ppp transmissionState:vector ETV
attr interpolationmode sample-hold
attr source transmissionStateChanged
attr title "tx state, vector"
vector 19 scenario.client4.ppp[3].ppp transmissionState:vector ETV
attr interpolationmode sample-hold
attr source transmissionStateChanged
attr title "tx state, vector"
vector 20 scenario.client3.tcp.conn-30 tcpRcvQueueBytes:vector ETV
attr interpolationmode sample-hold
vector 21 scenario.client3.tcp.conn-30 rcvAdv:vector ETV
attr interpolationmode sample-hold
vector 22 scenario.client3.tcp.conn-30 rcvWnd:vector ETV
attr interpolationmode sample-hold
vector 23 scenario.client3.tcp.conn-30 sndAck:vector ETV
attr interpolationmode sample-hold
vector 24 scenario.client3.ppp[0].ppp rcvdPkFromHl:vector(packetBytes) ETV
attr interpolationmode none
attr source packetReceivedFromUpper
attr title "packets received from higher layer, vector(packetBytes)"
vector 25 scenario.client3.ppp[0].ppp.queue packetPushed:vector(packetBytes) ETV
attr interpolationmode none
attr title "packet pushed, vector(packetBytes)"
vector 26 scenario.client3.ppp[0].ppp.queue queueLength:vector ETV
attr interpolationmode sample-hold
attr source "count(packetPushed) - count(packetPopped) - count(packetRemoved) - count(packetDropped)"
attr title "queue length, vector"
vector 27 scenario.client3.ppp[0].ppp.queue packetPopped:vector(packetBytes) ETV
attr interpolationmode none
attr title "packet popped, vector(packetBytes)"
vector 28 scenario.client3.ppp[0].ppp.queue queueingTime:vector ETV
attr interpolationmode none
attr source queueingTime(packetPopped)
attr title "queueing times, vector"
attr unit s
vector 29 scenario.client3.ppp[0].ppp txPk:vector(packetBytes) ETV
attr interpolationmode none
attr source packetSentToLower
attr title "packets transmitted, vector(packetBytes)"
vector 30 scenario.client0.ppp[2].ppp rxPkOk:vector(packetBytes) ETV
attr interpolationmode none
attr source rxPkOk
attr title "packets received OK, vector(packetBytes)"
vector 31 scenario.client0.ppp[2].ppp passedUpPk:vector(packetBytes) ETV
attr interpolationmode none
attr source packetSentToUpper
attr title "packets passed to higher layer, vector(packetBytes)"
vector 32 scenario.client0.tcp.conn-25 rcvSeq:vector ETV
attr interpolationmode sample-hold
vector 33 scenario.client0.tcp.conn-25 rcvAck:vector ETV
attr interpolationmode sample-hold
vector 34 scenario.client0.tcp.conn-31 rcvAdv:vector ETV
attr interpolationmode sample-hold
vector 35 scenario.client0.tcp.conn-31 sndWnd:vector ETV
attr interpolationmode sample-hold
vector 36 scenario.client0.tcp.conn-31 tcpRcvQueueBytes:vector ETV
attr interpolationmode sample-hold
vector 37 scenario.client0.tcp.conn-31 rcvWnd:vector ETV
attr interpolationmode sample-hold
vector 38 scenario.client0.tcp.conn-31 sndAck:vector ETV
attr interpolationmode sample-hold
vector 39 scenario.client0.ppp[2].ppp rcvdPkFromHl:vector(packetBytes) ETV
attr interpolationmode none
attr source packetReceivedFromUpper
attr title "packets received from higher layer, vector(packetBytes)"
vector 40 scenario.client0.ppp[2].ppp.queue packetPushed:vector(packetBytes) ETV
attr interpolationmode none
attr title "packet pushed, vector(packetBytes)"
vector 41 scenario.client0.ppp[2].ppp.queue queueLength:vector ETV
attr interpolationmode sample-hold
attr source "count(packetPushed) - count(packetPopped) - count(packetRemoved) - count(packetDropped)"
attr title "queue length, vector"
vector 42 scenario.client0.ppp[2].ppp.queue packetPopped:vector(packetBytes) ETV
attr interpolationmode none
attr title "packet popped, vector(packetBytes)"
vector 43 scenario.client0.ppp[2].ppp.queue queueingTime:vector ETV
attr interpolationmode none
attr source queueingTime(packetPopped)
attr title "queueing times, vector"
attr unit s
vector 44 scenario.client0.ppp[2].ppp txPk:vector(packetBytes) ETV
attr interpolationmode none
attr source packetSentToLower
attr title "packets transmitted, vector(packetBytes)"
vector 45 scenario.client3.ppp[0].ppp rxPkOk:vector(packetBytes) ETV
attr interpolationmode none
attr source rxPkOk
attr title "packets received OK, vector(packetBytes)"
vector 46 scenario.client3.ppp[0].ppp passedUpPk:vector(packetBytes) ETV
attr interpolationmode none
attr source packetSentToUpper
attr title "packets passed to higher layer, vector(packetBytes)"
vector 47 scenario.client3.tcp.conn-30 rcvSeq:vector ETV
attr interpolationmode sample-hold
vector 48 scenario.client3.tcp.conn-30 rcvAck:vector ETV
attr interpolationmode sample-hold
vector 49 scenario.client3.tcp.conn-30 sndWnd:vector ETV
attr interpolationmode sample-hold
vector 50 scenario.client3.tcp.conn-30 unacked:vector ETV
attr interpolationmode sample-hold
vector 51 scenario.client0.tcp.conn-31 rcvSeq:vector ETV
attr interpolationmode sample-hold
vector 52 scenario.client0.tcp.conn-31 rcvAck:vector ETV
attr interpolationmode sample-hold
vector 53 scenario.client0.tcp.conn-31 unacked:vector ETV
attr interpolationmode sample-hold
vector 54 scenario.client0.tcp.conn-31 cwnd:vector ETV
attr interpolationmode sample-hold
vector 55 scenario.client0.tcp.conn-31 ssthresh:vector ETV
attr interpolationmode sample-hold
vector 56 scenario.client0.tcp.conn-31 dupAcks:vector ETV
attr interpolationmode sample-hold
vector 57 scenario.client3.tcp.conn-30 rtt:vector ETV
attr interpolationmode sample-hold
vector 58 scenario.client3.tcp.conn-30 srtt:vector ETV
attr interpolationmode sample-hold
vector 59 scenario.client3.tcp.conn-30 rttvar:vector ETV
attr interpolationmode sample-hold
vector 60 scenario.client3.tcp.conn-30 rto:vector ETV
attr interpolationmode sample-hold
vector 61 scenario.client3.tcp.conn-30 cwnd:vector ETV
attr interpolationmode sample-hold
vector 62 scenario.client3.tcp.conn-30 ssthresh:vector ETV
attr interpolationmode sample-hold
vector 63 scenario.client3.tcp.conn-30 dupAcks:vector ETV
attr interpolationmode sample-hold
vector 64 scenario.client3.tcp.conn-32 tcpRcvQueueBytes:vector ETV
attr interpolationmode sample-hold
vector 65 scenario.client3.tcp.conn-32 rcvAdv:vector ETV
attr interpolationmode sample-hold
vector 66 scenario.client3.tcp.conn-32 rcvWnd:vector ETV
attr interpolationmode sample-hold
vector 67 scenario.client3.tcp.conn-32 sndAck:vector ETV
attr interpolationmode sample-hold
vector 68 scenario.client3.ppp[2].ppp rcvdPkFromHl:vector(packetBytes) ETV
attr interpolationmode none
attr source packetReceivedFromUpper
attr title "packets received from higher layer, vector(packetBytes)"
vector 69 scenario.client3.ppp[2].ppp.queue packetPushed:vector(packetBytes) ETV
attr interpolationmode none
attr title "packet pushed, vector(packetBytes)"
vector 70 scenario.client3.ppp[2].ppp.queue queueLength:vector ETV
attr interpolationmode sample-hold
attr source "count(packetPushed) - count(packetPopped) - count(packetRemoved) - count(packetDropped)"
attr title "queue length, vector"
vector 71 scenario.client3.ppp[2].ppp.queue packetPopped:vector(packetBytes) ETV
attr interpolationmode none
attr title "packet popped, vector(packetBytes)"
vector 72 scenario.client3.ppp[2].ppp.queue queueingTime:vector ETV
attr interpolationmode none
attr source queueingTime(packetPopped)
attr title "queueing times, vector"
attr unit s
vector 73 scenario.client3.ppp[2].ppp txPk:vector(packetBytes) ETV
attr interpolationmode none
attr source packetSentToLower
attr title "packets transmitted, vector(packetBytes)"
vector 74 scenario.client2.ppp[2].ppp rxPkOk:vector(packetBytes) ETV
attr interpolationmode none
attr source rxPkOk
attr title "packets received OK, vector(packetBytes)"
vector 75 scenario.client2.ppp[2].ppp passedUpPk:vector(packetBytes) ETV
attr interpolationmode none
attr source packetSentToUpper
attr title "packets passed to higher layer, vector(packetBytes)"
vector 76 scenario.client2.tcp.conn-27 rcvSeq:vector ETV
attr interpolationmode sample-hold
vector 77 scenario.client2.tcp.conn-27 rcvAck:vector ETV
attr interpolationmode sample-hold
vector 78 scenario.client2.tcp.conn-33 rcvAdv:vector ETV
attr interpolationmode sample-hold
vector 79 scenario.client2.tcp.conn-33 sndWnd:vector ETV
attr interpolationmode sample-hold
vector 80 scenario.client2.tcp.conn-33 tcpRcvQueueBytes:vector ETV
attr interpolationmode sample-hold
vector 81 scenario.client2.tcp.conn-33 rcvWnd:vector ETV
attr interpolationmode sample-hold
vector 82 scenario.client2.tcp.conn-33 sndAck:vector ETV
attr interpolationmode sample-hold
vector 83 scenario.client2.ppp[2].ppp rcvdPkFromHl:vector(packetBytes) ETV
attr interpolationmode none
attr source packetReceivedFromUpper
attr title "packets received from higher layer, vector(packetBytes)"
vector 84 scenario.client2.ppp[2].ppp.queue packetPushed:vector(packetBytes) ETV
attr interpolationmode none
attr title "packet pushed, vector(packetBytes)"
vector 85 scenario.client2.ppp[2].ppp.queue queueLength:vector ETV
attr interpolationmode sample-hold
attr source "count(packetPushed) - count(packetPopped) - count(packetRemoved) - count(packetDropped)"
attr title "queue length, vector"
vector 86 scenario.client2.ppp[2].ppp.queue packetPopped:vector(packetBytes) ETV
attr interpolationmode none
attr title "packet popped, vector(packetBytes)"
vector 87 scenario.client2.ppp[2].ppp.queue queueingTime:vector ETV
attr interpolationmode none
attr source queueingTime(packetPopped)
attr title "queueing times, vector"
attr unit s
vector 88 scenario.client2.ppp[2].ppp txPk:vector(packetBytes) ETV
attr interpolationmode none
attr source packetSentToLower
attr title "packets transmitted, vector(packetBytes)"
vector 89 scenario.client3.ppp[2].ppp rxPkOk:vector(packetBytes) ETV
attr interpolationmode none
attr source rxPkOk
attr title "packets received OK, vector(packetBytes)"
vector 90 scenario.client3.ppp[2].ppp passedUpPk:vector(packetBytes) ETV
attr interpolationmode none
attr source packetSentToUpper
attr title "packets passed to higher layer, vector(packetBytes)"
vector 91 scenario.client3.tcp.conn-32 rcvSeq:vector ETV
attr interpolationmode sample-hold
vector 92 scenario.client3.tcp.conn-32 rcvAck:vector ETV
attr interpolationmode sample-hold
vector 93 scenario.client3.tcp.conn-32 sndWnd:vector ETV
attr interpolationmode sample-hold
vector 94 scenario.client3.tcp.conn-32 unacked:vector ETV
attr interpolationmode sample-hold
vector 95 scenario.client2.tcp.conn-33 rcvSeq:vector ETV
attr interpolationmode sample-hold
vector 96 scenario.client2.tcp.conn-33 rcvAck:vector ETV
attr interpolationmode sample-hold
vector 97 scenario.client2.tcp.conn-33 unacked:vector ETV
attr interpolationmode sample-hold
vector 98 scenario.client2.tcp.conn-33 cwnd:vector ETV
attr interpolationmode sample-hold
vector 99 scenario.client2.tcp.conn-33 ssthresh:vector ETV
attr interpolationmode sample-hold
vector 100 scenario.client2.tcp.conn-33 dupAcks:vector ETV
attr interpolationmode sample-hold
vector 101 scenario.client3.tcp.conn-32 rtt:vector ETV
attr interpolationmode sample-hold
vector 102 scenario.client3.tcp.conn-32 srtt:vector ETV
attr interpolationmode sample-hold
vector 103 scenario.client3.tcp.conn-32 rttvar:vector ETV
attr interpolationmode sample-hold
vector 104 scenario.client3.tcp.conn-32 rto:vector ETV
attr interpolationmode sample-hold
vector 105 scenario.client3.tcp.conn-32 cwnd:vector ETV
attr interpolationmode sample-hold
vector 106 scenario.client3.tcp.conn-32 ssthresh:vector ETV
attr interpolationmode sample-hold
vector 107 scenario.client3.tcp.conn-32 dupAcks:vector ETV
attr interpolationmode sample-hold
vector 108 scenario.client3.tcp.conn-34 tcpRcvQueueBytes:vector ETV
attr interpolationmode sample-hold
vector 109 scenario.client3.tcp.conn-34 rcvAdv:vector ETV
attr interpolationmode sample-hold
vector 110 scenario.client3.tcp.conn-34 rcvWnd:vector ETV
attr interpolationmode sample-hold
vector 111 scenario.client3.tcp.conn-34 sndAck:vector ETV
attr interpolationmode sample-hold
vector 112 scenario.client3.ppp[1].ppp rcvdPkFromHl:vector(packetBytes) ETV
attr interpolationmode none
attr source packetReceivedFromUpper
attr title "packets received from higher layer, vector(packetBytes)"
vector 113 scenario.client3.ppp[1].ppp.queue packetPushed:vector(packetBytes) ETV
attr interpolationmode none
attr title "packet pushed, vector(packetBytes)"
vector 114 scenario.client3.ppp[1].ppp.queue queueLength:vector ETV
attr interpolationmode sample-hold
attr source "count(packetPushed) - count(packetPopped) - count(packetRemoved) - count(packetDropped)"
attr title "queue length, vector"
vector 115 scenario.client3.ppp[1].ppp.queue packetPopped:vector(packetBytes) ETV
attr interpolationmode none
attr title "packet popped, vector(packetBytes)"
vector 116 scenario.client3.ppp[1].ppp.queue queueingTime:vector ETV
attr interpolationmode none
attr source queueingTime(packetPopped)
attr title "queueing times, vector"
attr unit s
vector 117 scenario.client3.ppp[1].ppp txPk:vector(packetBytes) ETV
attr interpolationmode none
attr source packetSentToLower
attr title "packets transmitted, vector(packetBytes)"
vector 118 scenario.client1.ppp[2].ppp rxPkOk:vector(packetBytes) ETV
attr interpolationmode none
attr source rxPkOk
attr title "packets received OK, vector(packetBytes)"
vector 119 scenario.client1.ppp[2].ppp passedUpPk:vector(packetBytes) ETV
attr interpolationmode none
attr source packetSentToUpper
attr title "packets passed to higher layer, vector(packetBytes)"
vector 120 scenario.client1.tcp.conn-26 rcvSeq:vector ETV
attr interpolationmode sample-hold
vector 121 scenario.client1.tcp.conn-26 rcvAck:vector ETV
attr interpolationmode sample-hold
vector 122 scenario.client1.tcp.conn-35 rcvAdv:vector ETV
attr interpolationmode sample-hold
vector 123 scenario.client1.tcp.conn-35 sndWnd:vector ETV
attr interpolationmode sample-hold
vector 124 scenario.client1.tcp.conn-35 tcpRcvQueueBytes:vector ETV
attr interpolationmode sample-hold
vector 125 scenario.client1.tcp.conn-35 rcvWnd:vector ETV
attr interpolationmode sample-hold
vector 126 scenario.client1.tcp.conn-35 sndAck:vector ETV
attr interpolationmode sample-hold
vector 127 scenario.client1.ppp[2].ppp rcvdPkFromHl:vector(packetBytes) ETV
attr interpolationmode none
attr source packetReceivedFromUpper
attr title "packets received from higher layer, vector(packetBytes)"
vector 128 scenario.client1.ppp[2].ppp.queue packetPushed:vector(packetBytes) ETV
attr interpolationmode none
attr title "packet pushed, vector(packetBytes)"
vector 129 scenario.client1.ppp[2].ppp.queue queueLength:vector ETV
attr interpolationmode sample-hold
attr source "count(packetPushed) - count(packetPopped) - count(packetRemoved) - count(packetDropped)"
attr title "queue length, vector"
vector 130 scenario.client1.ppp[2].ppp.queue packetPopped:vector(packetBytes) ETV
attr interpolationmode none
attr title "packet popped, vector(packetBytes)"
vector 131 scenario.client1.ppp[2].ppp.queue queueingTime:vector ETV
attr interpolationmode none
attr source queueingTime(packetPopped)
attr title "queueing times, vector"
attr unit s
vector 132 scenario.client1.ppp[2].ppp txPk:vector(packetBytes) ETV
attr interpolationmode none
attr source packetSentToLower
attr title "packets transmitted, vector(packetBytes)"
vector 133 scenario.client3.ppp[1].ppp rxPkOk:vector(packetBytes) ETV
attr interpolationmode none
attr source rxPkOk
attr title "packets received OK, vector(packetBytes)"
vector 134 scenario.client3.ppp[1].ppp passedUpPk:vector(packetBytes) ETV
attr interpolationmode none
attr source packetSentToUpper
attr title "packets passed to higher layer, vector(packetBytes)"
vector 135 scenario.client3.tcp.conn-34 rcvSeq:vector ETV
attr interpolationmode sample-hold
vector 136 scenario.client3.tcp.conn-34 rcvAck:vector ETV
attr interpolationmode sample-hold
vector 137 scenario.client3.tcp.conn-34 sndWnd:vector ETV
attr interpolationmode sample-hold
vector 138 scenario.client3.tcp.conn-34 unacked:vector ETV
attr interpolationmode sample-hold
vector 139 scenario.client1.tcp.conn-35 rcvSeq:vector ETV
attr interpolationmode sample-hold
vector 140 scenario.client1.tcp.conn-35 rcvAck:vector ETV
attr interpolationmode sample-hold
vector 141 scenario.client1.tcp.conn-35 unacked:vector ETV
attr interpolationmode sample-hold
vector 142 scenario.client1.tcp.conn-35 cwnd:vector ETV
attr interpolationmode sample-hold
vector 143 scenario.client1.tcp.conn-35 ssthresh:vector ETV
attr interpolationmode sample-hold
vector 144 scenario.client1.tcp.conn-35 dupAcks:vector ETV
attr interpolationmode sample-hold
vector 145 scenario.client3.tcp.conn-34 rtt:vector ETV
attr interpolationmode sample-hold
vector 146 scenario.client3.tcp.conn-34 srtt:vector ETV
attr interpolationmode sample-hold
vector 147 scenario.client3.tcp.conn-34 rttvar:vector ETV
attr interpolationmode sample-hold
vector 148 scenario.client3.tcp.conn-34 rto:vector ETV
attr interpolationmode sample-hold
vector 149 scenario.client3.tcp.conn-34 cwnd:vector ETV
attr interpolationmode sample-hold
vector 150 scenario.client3.tcp.conn-34 ssthresh:vector ETV
attr interpolationmode sample-hold
vector 151 scenario.client3.tcp.conn-34 dupAcks:vector ETV
attr interpolationmode sample-hold
vector 152 scenario.client0.tcp.conn-36 tcpRcvQueueBytes:vector ETV
attr interpolationmode sample-hold
vector 153 scenario.client0.tcp.conn-36 rcvAdv:vector ETV
attr interpolationmode sample-hold
vector 154 scenario.client0.tcp.conn-36 rcvWnd:vector ETV
attr interpolationmode sample-hold
vector 155 scenario.client0.tcp.conn-36 sndAck:vector ETV
attr interpolationmode sample-hold
vector 156 scenario.client3.tcp.conn-28 rcvSeq:vector ETV
attr interpolationmode sample-hold
vector 157 scenario.client3.tcp.conn-28 rcvAck:vector ETV
attr interpolationmode sample-hold
vector 158 scenario.client3.tcp.conn-37 rcvAdv:vector ETV
attr interpolationmode sample-hold
vector 159 scenario.client3.tcp.conn-37 sndWnd:vector ETV
attr interpolationmode sample-hold
vector 160 scenario.client3.tcp.conn-37 tcpRcvQueueBytes:vector ETV
attr interpolationmode sample-hold
vector 161 scenario.client3.tcp.conn-37 rcvWnd:vector ETV
attr interpolationmode sample-hold
vector 162 scenario.client3.tcp.conn-37 sndAck:vector ETV
attr interpolationmode sample-hold
vector 163 scenario.client0.tcp.conn-36 rcvSeq:vector ETV
attr interpolationmode sample-hold
vector 164 scenario.client0.tcp.conn-36 rcvAck:vector ETV
attr interpolationmode sample-hold
vector 165 scenario.client0.tcp.conn-36 sndWnd:vector ETV
attr interpolationmode sample-hold
vector 166 scenario.client0.tcp.conn-36 unacked:vector ETV
attr interpolationmode sample-hold
vector 167 scenario.client3.tcp.conn-37 rcvSeq:vector ETV
attr interpolationmode sample-hold
vector 168 scenario.client3.tcp.conn-37 rcvAck:vector ETV
attr interpolationmode sample-hold
vector 169 scenario.client3.tcp.conn-37 unacked:vector ETV
attr interpolationmode sample-hold
vector 170 scenario.client3.tcp.conn-37 cwnd:vector ETV
attr interpolationmode sample-hold
vector 171 scenario.client3.tcp.conn-37 ssthresh:vector ETV
attr interpolationmode sample-hold
vector 172 scenario.client3.tcp.conn-37 dupAcks:vector ETV
attr interpolationmode sample-hold
vector 173 scenario.client0.tcp.conn-36 rtt:vector ETV
attr interpolationmode sample-hold
vector 174 scenario.client0.tcp.conn-36 srtt:vector ETV
attr interpolationmode sample-hold
vector 175 scenario.client0.tcp.conn-36 rttvar:vector ETV
attr interpolationmode sample-hold
vector 176 scenario.client0.tcp.conn-36 rto:vector ETV
attr interpolationmode sample-hold
vector 177 scenario.client0.tcp.conn-36 cwnd:vector ETV
attr interpolationmode sample-hold
vector 178 scenario.client0.tcp.conn-36 ssthresh:vector ETV
attr interpolationmode sample-hold
vector 179 scenario.client0.tcp.conn-36 dupAcks:vector ETV
attr interpolationmode sample-hold
vector 180 scenario.client1.tcp.conn-38 tcpRcvQueueBytes:vector ETV
attr interpolationmode sample-hold
vector 181 scenario.client1.tcp.conn-38 rcvAdv:vector ETV
attr interpolationmode sample-hold
vector 182 scenario.client1.tcp.conn-38 rcvWnd:vector ETV
attr interpolationmode sample-hold
vector 183 scenario.client1.tcp.conn-38 sndAck:vector ETV
attr interpolationmode sample-hold
vector 184 scenario.client3.tcp.conn-39 rcvAdv:vector ETV
attr interpolationmode sample-hold
vector 185 scenario.client3.tcp.conn-39 sndWnd:vector ETV
attr interpolationmode sample-hold
vector 186 scenario.client3.tcp.conn-39 tcpRcvQueueBytes:vector ETV
attr interpolationmode sample-hold
vector 187 scenario.client3.tcp.conn-39 rcvWnd:vector ETV
attr interpolationmode sample-hold
vector 188 scenario.client3.tcp.conn-39 sndAck:vector ETV
attr interpolationmode sample-hold
vector 189 scenario.client1.tcp.conn-38 rcvSeq:vector ETV
attr interpolationmode sample-hold
vector 190 scenario.client1.tcp.conn-38 rcvAck:vector ETV
attr interpolationmode sample-hold
vector 191 scenario.client1.tcp.conn-38 sndWnd:vector ETV
attr interpolationmode sample-hold
vector 192 scenario.client1.tcp.conn-38 unacked:vector ETV
attr interpolationmode sample-hold
vector 193 scenario.client3.tcp.conn-39 rcvSeq:vector ETV
attr interpolationmode sample-hold
vector 194 scenario.client3.tcp.conn-39 rcvAck:vector ETV
attr interpolationmode sample-hold
vector 195 scenario.client3.tcp.conn-39 unacked:vector ETV
attr interpolationmode sample-hold
vector 196 scenario.client3.tcp.conn-39 cwnd:vector ETV
attr interpolationmode sample-hold
vector 197 scenario.client3.tcp.conn-39 ssthresh:vector ETV
attr interpolationmode sample-hold
vector 198 scenario.client3.tcp.conn-39 dupAcks:vector ETV
attr interpolationmode sample-hold
vector 199 scenario.client1.tcp.conn-38 rtt:vector ETV
attr interpolationmode sample-hold
vector 200 scenario.client1.tcp.conn-38 srtt:vector ETV
attr interpolationmode sample-hold
vector 201 scenario.client1.tcp.conn-38 rttvar:vector ETV
attr interpolationmode sample-hold
vector 202 scenario.client1.tcp.conn-38 rto:vector ETV
attr interpolationmode sample-hold
vector 203 scenario.client1.tcp.conn-38 cwnd:vector ETV
attr interpolationmode sample-hold
vector 204 scenario.client1.tcp.conn-38 ssthresh:vector ETV
attr interpolationmode sample-hold
vector 205 scenario.client1.tcp.conn-38 dupAcks:vector ETV
attr interpolationmode sample-hold
vector 206 scenario.client2.tcp.conn-40 tcpRcvQueueBytes:vector ETV
attr interpolationmode sample-hold
vector 207 scenario.client2.tcp.conn-40 rcvAdv:vector ETV
attr interpolationmode sample-hold
vector 208 scenario.client2.tcp.conn-40 rcvWnd:vector ETV
attr interpolationmode sample-hold
vector 209 scenario.client2.tcp.conn-40 sndAck:vector ETV
attr interpolationmode sample-hold
vector 210 scenario.client3.tcp.conn-41 rcvAdv:vector ETV
attr interpolationmode sample-hold
vector 211 scenario.client3.tcp.conn-41 sndWnd:vector ETV
attr interpolationmode sample-hold
vector 212 scenario.client3.tcp.conn-41 tcpRcvQueueBytes:vector ETV
attr interpolationmode sample-hold
vector 213 scenario.client3.tcp.conn-41 rcvWnd:vector ETV
attr interpolationmode sample-hold
vector 214 scenario.client3.tcp.conn-41 sndAck:vector ETV
attr interpolationmode sample-hold
vector 215 scenario.client2.tcp.conn-40 rcvSeq:vector ETV
attr interpolationmode sample-hold
vector 216 scenario.client2.tcp.conn-40 rcvAck:vector ETV
attr interpolationmode sample-hold
vector 217 scenario.client2.tcp.conn-40 sndWnd:vector ETV
attr interpolationmode sample-hold
vector 218 scenario.client2.tcp.conn-40 unacked:vector ETV
attr interpolationmode sample-hold
vector 219 scenario.client3.tcp.conn-41 rcvSeq:vector ETV
attr interpolationmode sample-hold
vector 220 scenario.client3.tcp.conn-41 rcvAck:vector ETV
attr interpolationmode sample-hold
vector 221 scenario.client3.tcp.conn-41 unacked:vector ETV
attr interpolationmode sample-hold
vector 222 scenario.client3.tcp.conn-41 cwnd:vector ETV
attr interpolationmode sample-hold
vector 223 scenario.client3.tcp.conn-41 ssthresh:vector ETV
attr interpolationmode sample-hold
vector 224 scenario.client3.tcp.conn-41 dupAcks:vector ETV
attr interpolationmode sample-hold
vector 225 scenario.client2.tcp.conn-40 rtt:vector ETV
attr interpolationmode sample-hold
vector 226 scenario.client2.tcp.conn-40 srtt:vector ETV
attr interpolationmode sample-hold
vector 227 scenario.client2.tcp.conn-40 rttvar:vector ETV
attr interpolationmode sample-hold
vector 228 scenario.client2.tcp.conn-40 rto:vector ETV
attr interpolationmode sample-hold
vector 229 scenario.client2.tcp.conn-40 cwnd:vector ETV
attr interpolationmode sample-hold
vector 230 scenario.client2.tcp.conn-40 ssthresh:vector ETV
attr interpolationmode sample-hold
vector 231 scenario.client2.tcp.conn-40 dupAcks:vector ETV
attr interpolationmode sample-hold
vector 232 scenario.client2.tcp.conn-42 tcpRcvQueueBytes:vector ETV
attr interpolationmode sample-hold
vector 233 scenario.client2.tcp.conn-42 rcvAdv:vector ETV
attr interpolationmode sample-hold
vector 234 scenario.client2.tcp.conn-42 rcvWnd:vector ETV
attr interpolationmode sample-hold
vector 235 scenario.client2.tcp.conn-42 sndAck:vector ETV
attr interpolationmode sample-hold
vector 236 scenario.client2.ppp[0].ppp rcvdPkFromHl:vector(packetBytes) ETV
attr interpolationmode none
attr source packetReceivedFromUpper
attr title "packets received from higher layer, vector(packetBytes)"
vector 237 scenario.client2.ppp[0].ppp.queue packetPushed:vector(packetBytes) ETV
attr interpolationmode none
attr title "packet pushed, vector(packetBytes)"
vector 238 scenario.client2.ppp[0].ppp.queue queueLength:vector ETV
attr interpolationmode sample-hold
attr source "count(packetPushed) - count(packetPopped) - count(packetRemoved) - count(packetDropped)"
attr title "queue length, vector"
vector 239 scenario.client2.ppp[0].ppp.queue packetPopped:vector(packetBytes) ETV
attr interpolationmode none
attr title "packet popped, vector(packetBytes)"
vector 240 scenario.client2.ppp[0].ppp.queue queueingTime:vector ETV
attr interpolationmode none
attr source queueingTime(packetPopped)
attr title "queueing times, vector"
attr unit s
vector 241 scenario.client2.ppp[0].ppp txPk:vector(packetBytes) ETV
attr interpolationmode none
attr source packetSentToLower
attr title "packets transmitted, vector(packetBytes)"
vector 242 scenario.client0.ppp[1].ppp rxPkOk:vector(packetBytes) ETV
attr interpolationmode none
attr source rxPkOk
attr title "packets received OK, vector(packetBytes)"
vector 243 scenario.client0.ppp[1].ppp passedUpPk:vector(packetBytes) ETV
attr interpolationmode none
attr source packetSentToUpper
attr title "packets passed to higher layer, vector(packetBytes)"
vector 244 scenario.client0.tcp.conn-43 rcvAdv:vector ETV
attr interpolationmode sample-hold
vector 245 scenario.client0.tcp.conn-43 sndWnd:vector ETV
attr interpolationmode sample-hold
vector 246 scenario.client0.tcp.conn-43 tcpRcvQueueBytes:vector ETV
attr interpolationmode sample-hold
vector 247 scenario.client0.tcp.conn-43 rcvWnd:vector ETV
attr interpolationmode sample-hold
vector 248 scenario.client0.tcp.conn-43 sndAck:vector ETV
attr interpolationmode sample-hold
vector 249 scenario.client0.ppp[1].ppp rcvdPkFromHl:vector(packetBytes) ETV
attr interpolationmode none
attr source packetReceivedFromUpper
attr title "packets received from higher layer, vector(packetBytes)"
vector 250 scenario.client0.ppp[1].ppp.queue packetPushed:vector(packetBytes) ETV
attr interpolationmode none
attr title "packet pushed, vector(packetBytes)"
vector 251 scenario.client0.ppp[1].ppp.queue queueLength:vector ETV
attr interpolationmode sample-hold
attr source "count(packetPushed) - count(packetPopped) - count(packetRemoved) - count(packetDropped)"
attr title "queue length, vector"
vector 252 scenario.client0.ppp[1].ppp.queue packetPopped:vector(packetBytes) ETV
attr interpolationmode none
attr title "packet popped, vector(packetBytes)"
vector 253 scenario.client0.ppp[1].ppp.queue queueingTime:vector ETV
attr interpolationmode none
attr source queueingTime(packetPopped)
attr title "queueing times, vector"
attr unit s
vector 254 scenario.client0.ppp[1].ppp txPk:vector(packetBytes) ETV
attr interpolationmode none
attr source packetSentToLower
attr title "packets transmitted, vector(packetBytes)"
vector 255 scenario.client2.ppp[0].ppp rxPkOk:vector(packetBytes) ETV
attr interpolationmode none
attr source rxPkOk
attr title "packets received OK, vector(packetBytes)"
vector 256 scenario.client2.ppp[0].ppp passedUpPk:vector(packetBytes) ETV
attr interpolationmode none
attr source packetSentToUpper
attr title "packets passed to higher layer, vector(packetBytes)"
vector 257 scenario.client2.tcp.conn-42 rcvSeq:vector ETV
attr interpolationmode sample-hold
vector 258 scenario.client2.tcp.conn-42 rcvAck:vector ETV
attr interpolationmode sample-hold
vector 259 scenario.client2.tcp.conn-42 sndWnd:vector ETV
attr interpolationmode sample-hold
vector 260 scenario.client2.tcp.conn-42 unacked:vector ETV
attr interpolationmode sample-hold
vector 261 scenario.client0.tcp.conn-43 rcvSeq:vector ETV
attr interpolationmode sample-hold
vector 262 scenario.client0.tcp.conn-43 rcvAck:vector ETV
attr interpolationmode sample-hold
vector 263 scenario.client0.tcp.conn-43 unacked:vector ETV
attr interpolationmode sample-hold
vector 264 scenario.client0.tcp.conn-43 cwnd:vector ETV
attr interpolationmode sample-hold
vector 265 scenario.client0.tcp.conn-43 ssthresh:vector ETV
attr interpolationmode sample-hold
vector 266 scenario.client0.tcp.conn-43 dupAcks:vector ETV
attr interpolationmode sample-hold
vector 267 scenario.client2.tcp.conn-42 rtt:vector ETV
attr interpolationmode sample-hold
vector 268 scenario.client2.tcp.conn-42 srtt:vector ETV
attr interpolationmode sample-hold
vector 269 scenario.client2.tcp.conn-42 rttvar:vector ETV
attr interpolationmode sample-hold
vector 270 scenario.client2.tcp.conn-42 rto:vector ETV
attr interpolationmode sample-hold
vector 271 scenario.client2.tcp.conn-42 cwnd:vector ETV
attr interpolationmode sample-hold
vector 272 scenario.client2.tcp.conn-42 ssthresh:vector ETV
attr interpolationmode sample-hold
vector 273 scenario.client2.tcp.conn-42 dupAcks:vector ETV
attr interpolationmode sample-hold
vector 274 scenario.client2.tcp.conn-44 tcpRcvQueueBytes:vector ETV
attr interpolationmode sample-hold
vector 275 scenario.client2.tcp.conn-44 rcvAdv:vector ETV
attr interpolationmode sample-hold
vector 276 scenario.client2.tcp.conn-44 rcvWnd:vector ETV
attr interpolationmode sample-hold
vector 277 scenario.client2.tcp.conn-44 sndAck:vector ETV
attr interpolationmode sample-hold
vector 278 scenario.client2.ppp[1].ppp rcvdPkFromHl:vector(packetBytes) ETV
attr interpolationmode none
attr source packetReceivedFromUpper
attr title "packets received from higher layer, vector(packetBytes)"
vector 279 scenario.client2.ppp[1].ppp.queue packetPushed:vector(packetBytes) ETV
attr interpolationmode none
attr title "packet pushed, vector(packetBytes)"
vector 280 scenario.client2.ppp[1].ppp.queue queueLength:vector ETV
attr interpolationmode sample-hold
attr source "count(packetPushed) - count(packetPopped) - count(packetRemoved) - count(packetDropped)"
attr title "queue length, vector"
vector 281 scenario.client2.ppp[1].ppp.queue packetPopped:vector(packetBytes) ETV
attr interpolationmode none
attr title "packet popped, vector(packetBytes)"
vector 282 scenario.client2.ppp[1].ppp.queue queueingTime:vector ETV
attr interpolationmode none
attr source queueingTime(packetPopped)
attr title "queueing times, vector"
attr unit s
vector 283 scenario.client2.ppp[1].ppp txPk:vector(packetBytes) ETV
attr interpolationmode none
attr source packetSentToLower
attr title "packets transmitted, vector(packetBytes)"
vector 284 scenario.client1.ppp[1].ppp rxPkOk:vector(packetBytes) ETV
attr interpolationmode none
attr source rxPkOk
attr title "packets received OK, vector(packetBytes)"
vector 285 scenario.client1.ppp[1].ppp passedUpPk:vector(packetBytes) ETV
attr interpolationmode none
attr source packetSentToUpper
attr title "packets passed to higher layer, vector(packetBytes)"
vector 286 scenario.client1.tcp.conn-45 rcvAdv:vector ETV
attr interpolationmode sample-hold
vector 287 scenario.client1.tcp.conn-45 sndWnd:vector ETV
attr interpolationmode sample-hold
vector 288 scenario.client1.tcp.conn-45 tcpRcvQueueBytes:vector ETV
attr interpolationmode sample-hold
vector 289 scenario.client1.tcp.conn-45 rcvWnd:vector ETV
attr interpolationmode sample-hold
vector 290 scenario.client1.tcp.conn-45 sndAck:vector ETV
attr interpolationmode sample-hold
vector 291 scenario.client1.ppp[1].ppp rcvdPkFromHl:vector(packetBytes) ETV
attr interpolationmode none
attr source packetReceivedFromUpper
attr title "packets received from higher layer, vector(packetBytes)"
vector 292 scenario.client1.ppp[1].ppp.queue packetPushed:vector(packetBytes) ETV
attr interpolationmode none
attr title "packet pushed, vector(packetBytes)"
vector 293 scenario.client1.ppp[1].ppp.queue queueLength:vector ETV
attr interpolationmode sample-hold
attr source "count(packetPushed) - count(packetPopped) - count(packetRemoved) - count(packetDropped)"
attr title "queue length, vector"
vector 294 scenario.client1.ppp[1].ppp.queue packetPopped:vector(packetBytes) ETV
attr interpolationmode none
attr title "packet popped, vector(packetBytes)"
vector 295 scenario.client1.ppp[1].ppp.queue queueingTime:vector ETV
attr interpolationmode none
attr source queueingTime(packetPopped)
attr title "queueing times, vector"
attr unit s
vector 296 scenario.client1.ppp[1].ppp txPk:vector(packetBytes) ETV
attr interpolationmode none
attr source packetSentToLower
attr title "packets transmitted, vector(packetBytes)"
vector 297 scenario.client2.ppp[1].ppp rxPkOk:vector(packetBytes) ETV
attr interpolationmode none
attr source rxPkOk
attr title "packets received OK, vector(packetBytes)"
vector 298 scenario.client2.ppp[1].ppp passedUpPk:vector(packetBytes) ETV
attr interpolationmode none
attr source packetSentToUpper
attr title "packets passed to higher layer, vector(packetBytes)"
vector 299 scenario.client2.tcp.conn-44 rcvSeq:vector ETV
attr interpolationmode sample-hold
vector 300 scenario.client2.tcp.conn-44 rcvAck:vector ETV
attr interpolationmode sample-hold
vector 301 scenario.client2.tcp.conn-44 sndWnd:vector ETV
attr interpolationmode sample-hold
vector 302 scenario.client2.tcp.conn-44 unacked:vector ETV
attr interpolationmode sample-hold
vector 303 scenario.client1.tcp.conn-45 rcvSeq:vector ETV
attr interpolationmode sample-hold
vector 304 scenario.client1.tcp.conn-45 rcvAck:vector ETV
attr interpolationmode sample-hold
vector 305 scenario.client1.tcp.conn-45 unacked:vector ETV
attr interpolationmode sample-hold
vector 306 scenario.client1.tcp.conn-45 cwnd:vector ETV
attr interpolationmode sample-hold
vector 307 scenario.client1.tcp.conn-45 ssthresh:vector ETV
attr interpolationmode sample-hold
vector 308 scenario.client1.tcp.conn-45 dupAcks:vector ETV
attr interpolationmode sample-hold
vector 309 scenario.client2.tcp.conn-44 rtt:vector ETV
attr interpolationmode sample-hold
vector 310 scenario.client2.tcp.conn-44 srtt:vector ETV
attr interpolationmode sample-hold
vector 311 scenario.client2.tcp.conn-44 rttvar:vector ETV
attr interpolationmode sample-hold
vector 312 scenario.client2.tcp.conn-44 rto:vector ETV
attr interpolationmode sample-hold
vector 313 scenario.client2.tcp.conn-44 cwnd:vector ETV
attr interpolationmode sample-hold
vector 314 scenario.client2.tcp.conn-44 ssthresh:vector ETV
attr interpolationmode sample-hold
vector 315 scenario.client2.tcp.conn-44 dupAcks:vector ETV
attr interpolationmode sample-hold
vector 316 scenario.client0.tcp.conn-46 tcpRcvQueueBytes:vector ETV
attr interpolationmode sample-hold
vector 317 scenario.client0.tcp.conn-46 rcvAdv:vector ETV
attr interpolationmode sample-hold
vector 318 scenario.client0.tcp.conn-46 rcvWnd:vector ETV
attr interpolationmode sample-hold
vector 319 scenario.client0.tcp.conn-46 sndAck:vector ETV
attr interpolationmode sample-hold
vector 320 scenario.client2.tcp.conn-47 rcvAdv:vector ETV
attr interpolationmode sample-hold
vector 321 scenario.client2.tcp.conn-47 sndWnd:vector ETV
attr interpolationmode sample-hold
vector 322 scenario.client2.tcp.conn-47 tcpRcvQueueBytes:vector ETV
attr interpolationmode sample-hold
vector 323 scenario.client2.tcp.conn-47 rcvWnd:vector ETV
attr interpolationmode sample-hold
vector 324 scenario.client2.tcp.conn-47 sndAck:vector ETV
attr interpolationmode sample-hold
vector 325 scenario.client0.tcp.conn-46 rcvSeq:vector ETV
attr interpolationmode sample-hold
vector 326 scenario.client0.tcp.conn-46 rcvAck:vector ETV
attr interpolationmode sample-hold
vector 327 scenario.client0.tcp.conn-46 sndWnd:vector ETV
attr interpolationmode sample-hold
vector 328 scenario.client0.tcp.conn-46 unacked:vector ETV
attr interpolationmode sample-hold
vector 329 scenario.client2.tcp.conn-47 rcvSeq:vector ETV
attr interpolationmode sample-hold
vector 330 scenario.client2.tcp.conn-47 rcvAck:vector ETV
attr interpolationmode sample-hold
vector 331 scenario.client2.tcp.conn-47 unacked:vector ETV
attr interpolationmode sample-hold
vector 332 scenario.client2.tcp.conn-47 cwnd:vector ETV
attr interpolationmode sample-hold
vector 333 scenario.client2.tcp.conn-47 ssthresh:vector ETV
attr interpolationmode sample-hold
vector 334 scenario.client2.tcp.conn-47 dupAcks:vector ETV
attr interpolationmode sample-hold
vector 335 scenario.client0.tcp.conn-46 rtt:vector ETV
attr interpolationmode sample-hold
vector 336 scenario.client0.tcp.conn-46 srtt:vector ETV
attr interpolationmode sample-hold
vector 337 scenario.client0.tcp.conn-46 rttvar:vector ETV
attr interpolationmode sample-hold
vector 338 scenario.client0.tcp.conn-46 rto:vector ETV
attr interpolationmode sample-hold
vector 339 scenario.client0.tcp.conn-46 cwnd:vector ETV
attr interpolationmode sample-hold
vector 340 scenario.client0.tcp.conn-46 ssthresh:vector ETV
attr interpolationmode sample-hold
vector 341 scenario.client0.tcp.conn-46 dupAcks:vector ETV
attr interpolationmode sample-hold
vector 342 scenario.client0.tcp.conn-48 tcpRcvQueueBytes:vector ETV
attr interpolationmode sample-hold
vector 343 scenario.client0.tcp.conn-48 rcvAdv:vector ETV
attr interpolationmode sample-hold
vector 344 scenario.client0.tcp.conn-48 rcvWnd:vector ETV
attr interpolationmode sample-hold
vector 345 scenario.client0.tcp.conn-48 sndAck:vector ETV
attr interpolationmode sample-hold
vector 346 scenario.client0.ppp[0].ppp rcvdPkFromHl:vector(packetBytes) ETV
attr interpolationmode none
attr source packetReceivedFromUpper
attr title "packets received from higher layer, vector(packetBytes)"
vector 347 scenario.client0.ppp[0].ppp.queue packetPushed:vector(packetBytes) ETV
attr interpolationmode none
attr title "packet pushed, vector(packetBytes)"
vector 348 scenario.client0.ppp[0].ppp.queue queueLength:vector ETV
attr interpolationmode sample-hold
attr source "count(packetPushed) - count(packetPopped) - count(packetRemoved) - count(packetDropped)"
attr title "queue length, vector"
vector 349 scenario.client0.ppp[0].ppp.queue packetPopped:vector(packetBytes) ETV
attr interpolationmode none
attr title "packet popped, vector(packetBytes)"
vector 350 scenario.client0.ppp[0].ppp.queue queueingTime:vector ETV
attr interpolationmode none
attr source queueingTime(packetPopped)
attr title "queueing times, vector"
attr unit s
vector 351 scenario.client0.ppp[0].ppp txPk:vector(packetBytes) ETV
attr interpolationmode none
attr source packetSentToLower
attr title "packets transmitted, vector(packetBytes)"
vector 352 scenario.client1.ppp[0].ppp rxPkOk:vector(packetBytes) ETV
attr interpolationmode none
attr source rxPkOk
attr title "packets received OK, vector(packetBytes)"
vector 353 scenario.client1.ppp[0].ppp passedUpPk:vector(packetBytes) ETV
attr interpolationmode none
attr source packetSentToUpper
attr title "packets passed to higher layer, vector(packetBytes)"
vector 354 scenario.client1.tcp.conn-49 rcvAdv:vector ETV
attr interpolationmode sample-hold
vector 355 scenario.client1.tcp.conn-49 sndWnd:vector ETV
attr interpolationmode sample-hold
vector 356 scenario.client1.tcp.conn-49 tcpRcvQueueBytes:vector ETV
attr interpolationmode sample-hold
vector 357 scenario.client1.tcp.conn-49 rcvWnd:vector ETV
attr interpolationmode sample-hold
vector 358 scenario.client1.tcp.conn-49 sndAck:vector ETV
attr interpolationmode sample-hold
vector 359 scenario.client1.ppp[0].ppp rcvdPkFromHl:vector(packetBytes) ETV
attr interpolationmode none
attr source packetReceivedFromUpper
attr title "packets received from higher layer, vector(packetBytes)"
vector 360 scenario.client1.ppp[0].ppp.queue packetPushed:vector(packetBytes) ETV
attr interpolationmode none
attr title "packet pushed, vector(packetBytes)"
vector 361 scenario.client1.ppp[0].ppp.queue queueLength:vector ETV
attr interpolationmode sample-hold
attr source "count(packetPushed) - count(packetPopped) - count(packetRemoved) - count(packetDropped)"
attr title "queue length, vector"
vector 362 scenario.client1.ppp[0].ppp.queue packetPopped:vector(packetBytes) ETV
attr interpolationmode none
attr title "packet popped, vector(packetBytes)"
vector 363 scenario.client1.ppp[0].ppp.queue queueingTime:vector ETV
attr interpolationmode none
attr source queueingTime(packetPopped)
attr title "queueing times, vector"
attr unit s
vector 364 scenario.client1.ppp[0].ppp txPk:vector(packetBytes) ETV
attr interpolationmode none
attr source packetSentToLower
attr title "packets transmitted, vector(packetBytes)"
vector 365 scenario.client0.ppp[0].ppp rxPkOk:vector(packetBytes) ETV
attr interpolationmode none
attr source rxPkOk
attr title "packets received OK, vector(packetBytes)"
vector 366 scenario.client0.ppp[0].ppp passedUpPk:vector(packetBytes) ETV
attr interpolationmode none
attr source packetSentToUpper
attr title "packets passed to higher layer, vector(packetBytes)"
vector 367 scenario.client0.tcp.conn-48 rcvSeq:vector ETV
attr interpolationmode sample-hold
vector 368 scenario.client0.tcp.conn-48 rcvAck:vector ETV
attr interpolationmode sample-hold
vector 369 scenario.client0.tcp.conn-48 sndWnd:vector ETV
attr interpolationmode sample-hold
vector 370 scenario.client0.tcp.conn-48 unacked:vector ETV
attr interpolationmode sample-hold
vector 371 scenario.client1.tcp.conn-49 rcvSeq:vector ETV
attr interpolationmode sample-hold
vector 372 scenario.client1.tcp.conn-49 rcvAck:vector ETV
attr interpolationmode sample-hold
vector 373 scenario.client1.tcp.conn-49 unacked:vector ETV
attr interpolationmode sample-hold
vector 374 scenario.client1.tcp.conn-49 cwnd:vector ETV
attr interpolationmode sample-hold
vector 375 scenario.client1.tcp.conn-49 ssthresh:vector ETV
attr interpolationmode sample-hold
vector 376 scenario.client1.tcp.conn-49 dupAcks:vector ETV
attr interpolationmode sample-hold
vector 377 scenario.client0.tcp.conn-48 rtt:vector ETV
attr interpolationmode sample-hold
vector 378 scenario.client0.tcp.conn-48 srtt:vector ETV
attr interpolationmode sample-hold
vector 379 scenario.client0.tcp.conn-48 rttvar:vector ETV
attr interpolationmode sample-hold
vector 380 scenario.client0.tcp.conn-48 rto:vector ETV
attr interpolationmode sample-hold
vector 381 scenario.client0.tcp.conn-48 cwnd:vector ETV
attr interpolationmode sample-hold
vector 382 scenario.client0.tcp.conn-48 ssthresh:vector ETV
attr interpolationmode sample-hold
vector 383 scenario.client0.tcp.conn-48 dupAcks:vector ETV
attr interpolationmode sample-hold
vector 384 scenario.client1.tcp.conn-50 tcpRcvQueueBytes:vector ETV
attr interpolationmode sample-hold
vector 385 scenario.client1.tcp.conn-50 rcvAdv:vector ETV
attr interpolationmode sample-hold
vector 386 scenario.client1.tcp.conn-50 rcvWnd:vector ETV
attr interpolationmode sample-hold
vector 387 scenario.client1.tcp.conn-50 sndAck:vector ETV
attr interpolationmode sample-hold
vector 388 scenario.client2.tcp.conn-51 rcvAdv:vector ETV
attr interpolationmode sample-hold
vector 389 scenario.client2.tcp.conn-51 sndWnd:vector ETV
attr interpolationmode sample-hold
vector 390 scenario.client2.tcp.conn-51 tcpRcvQueueBytes:vector ETV
attr interpolationmode sample-hold
vector 391 scenario.client2.tcp.conn-51 rcvWnd:vector ETV
attr interpolationmode sample-hold
vector 392 scenario.client2.tcp.conn-51 sndAck:vector ETV
attr interpolationmode sample-hold
vector 393 scenario.client1.tcp.conn-50 rcvSeq:vector ETV
attr interpolationmode sample-hold
vector 394 scenario.client1.tcp.conn-50 rcvAck:vector ETV
attr interpolationmode sample-hold
vector 395 scenario.client1.tcp.conn-50 sndWnd:vector ETV
attr interpolationmode sample-hold
vector 396 scenario.client1.tcp.conn-50 unacked:vector ETV
attr interpolationmode sample-hold
vector 397 scenario.client2.tcp.conn-51 rcvSeq:vector ETV
attr interpolationmode sample-hold
vector 398 scenario.client2.tcp.conn-51 rcvAck:vector ETV
attr interpolationmode sample-hold
vector 399 scenario.client2.tcp.conn-51 unacked:vector ETV
attr interpolationmode sample-hold
vector 400 scenario.client2.tcp.conn-51 cwnd:vector ETV
attr interpolationmode sample-hold
vector 401 scenario.client2.tcp.conn-51 ssthresh:vector ETV
attr interpolationmode sample-hold
vector 402 scenario.client2.tcp.conn-51 dupAcks:vector ETV
attr interpolationmode sample-hold
vector 403 scenario.client1.tcp.conn-50 rtt:vector ETV
attr interpolationmode sample-hold
vector 404 scenario.client1.tcp.conn-50 srtt:vector ETV
attr interpolationmode sample-hold
vector 405 scenario.client1.tcp.conn-50 rttvar:vector ETV
attr interpolationmode sample-hold
vector 406 scenario.client1.tcp.conn-50 rto:vector ETV
attr interpolationmode sample-hold
vector 407 scenario.client1.tcp.conn-50 cwnd:vector ETV
attr interpolationmode sample-hold
vector 408 scenario.client1.tcp.conn-50 ssthresh:vector ETV
attr interpolationmode sample-hold
vector 409 scenario.client1.tcp.conn-50 dupAcks:vector ETV
attr interpolationmode sample-hold
vector 410 scenario.client1.tcp.conn-52 tcpRcvQueueBytes:vector ETV
attr interpolationmode sample-hold
vector 411 scenario.client1.tcp.conn-52 rcvAdv:vector ETV
attr interpolationmode sample-hold
vector 412 scenario.client1.tcp.conn-52 rcvWnd:vector ETV
attr interpolationmode sample-hold
vector 413 scenario.client1.tcp.conn-52 sndAck:vector ETV
attr interpolationmode sample-hold
vector 414 scenario.client0.tcp.conn-53 rcvAdv:vector ETV
attr interpolationmode sample-hold
vector 415 scenario.client0.tcp.conn-53 sndWnd:vector ETV
attr interpolationmode sample-hold
vector 416 scenario.client0.tcp.conn-53 tcpRcvQueueBytes:vector ETV
attr interpolationmode sample-hold
vector 417 scenario.client0.tcp.conn-53 rcvWnd:vector ETV
attr interpolationmode sample-hold
vector 418 scenario.client0.tcp.conn-53 sndAck:vector ETV
attr interpolationmode sample-hold
vector 419 scenario.client1.tcp.conn-52 rcvSeq:vector ETV
attr interpolationmode sample-hold
vector 420 scenario.client1.tcp.conn-52 rcvAck:vector ETV
attr interpolationmode sample-hold
vector 421 scenario.client1.tcp.conn-52 sndWnd:vector ETV
attr interpolationmode sample-hold
vector 422 scenario.client1.tcp.conn-52 unacked:vector ETV
attr interpolationmode sample-hold
vector 423 scenario.client0.tcp.conn-53 rcvSeq:vector ETV
attr interpolationmode sample-hold
vector 424 scenario.client0.tcp.conn-53 rcvAck:vector ETV
attr interpolationmode sample-hold
vector 425 scenario.client0.tcp.conn-53 unacked:vector ETV
attr interpolationmode sample-hold
vector 426 scenario.client0.tcp.conn-53 cwnd:vector ETV
attr interpolationmode sample-hold
vector 427 scenario.client0.tcp.conn-53 ssthresh:vector ETV
attr interpolationmode sample-hold
vector 428 scenario.client0.tcp.conn-53 dupAcks:vector ETV
attr interpolationmode sample-hold
vector 429 scenario.client1.tcp.conn-52 rtt:vector ETV
attr interpolationmode sample-hold
vector 430 scenario.client1.tcp.conn-52 srtt:vector ETV
attr interpolationmode sample-hold
vector 431 scenario.client1.tcp.conn-52 rttvar:vector ETV
attr interpolationmode sample-hold
vector 432 scenario.client1.tcp.conn-52 rto:vector ETV
attr interpolationmode sample-hold
vector 433 scenario.client1.tcp.conn-52 cwnd:vector ETV
attr interpolationmode sample-hold
vector 434 scenario.client1.tcp.conn-52 ssthresh:vector ETV
attr interpolationmode sample-hold
vector 435 scenario.client1.tcp.conn-52 dupAcks:vector ETV
attr interpolationmode sample-hold
0	0	0	0
0	328	6.487563707389	1
0	329	6.487971707389	0
0	341	6.489379707389	1
0	342	6.489763707389	0
0	391	6.695287054048	1
0	397	6.695671054048	0
0	409	6.69630275692	1
0	411	6.69671075692	0
0	428	6.69809475692	1
0	431	6.69847075692	0
0	520	7.066848870144	1
0	521	7.067224870144	0
0	535	7.146746327952	1
0	540	7.147122327952	0
0	630	7.203145570238	1
0	631	7.203529570238	0
0	655	7.207751791619	1
0	662	7.208127791619	0
0	662	7.208127791619	1
0	665	7.208519791619	0
0	781	7.761822294381	1
0	784	7.762198294381	0
0	819	7.97504919364	1
0	820	7.97543319364	0
0	1117	10.79506406177	1
0	1118	10.79544006177	0
0	1125	10.817739314311	1
0	1126	10.818123314311	0
0	1305	11.444621054232	1
0	1306	11.445005054232	0
0	1327	11.462350234688	1
0	1328	11.462726234688	0
1	0	0	0
1	223	6.095057601733	1
1	224	6.095465601733	0
1	238	6.096849601733	1
1	241	6.097225601733	0
1	281	6.33780938139	1
1	282	6.33821738139	0
1	294	6.33962538139	1
1	295	6.34000938139	0
1	445	6.720417121738	1
1	446	6.720793121738	0
1	468	6.778785695974	1
1	469	6.779169695974	0
1	539	7.146959957518	1
1	541	7.147343957518	0
1	586	7.149111957518	1
1	587	7.149487957518	0
1	600	7.150256993316	1
1	601	7.150640993316	0
1	622	7.192127351543	1
1	623	7.192503351543	0
1	660	7.207751791619	1
1	663	7.208143791619	0
1	841	8.050947689931	1
1	842	8.051323689931	0
1	1035	10.547102209053	1
1	1036	10.547486209053	0
1	1072	10.589918641072	1
1	1073	10.590294641072	0
1	1170	10.985163857296	1
1	1171	10.985547857296	0
1	1297	11.3515985638	1
1	1298	11.3519745638	0
2	0	0	0
2	24	3.147518919523	1
2	25	3.147926919523	0
2	39	3.149310919523	1
2	42	3.149686919523	0
2	114	3.39641929075	1
2	115	3.39682729075	0
2	127	3.39823529075	1
2	128	3.39861929075	0
2	661	7.207751791619	1
2	664	7.208143791619	0
2	702	7.372491742546	1
2	703	7.372875742546	0
2	862	9.145694327464	1
2	863	9.146070327464	0
2	900	9.699086459792	1
2	901	9.699470459792	0
2	982	10.464152900297	1
2	983	10.464528900297	0
2	1095	10.766286144109	1
2	1096	10.766670144109	0
2	1162	10.922691431624	1
2	1163	10.923067431624	0
2	1252	11.260622887052	1
2	1253	11.260998887052	0
2	1260	11.332679161474	1
2	1261	11.333063161474	0
2	1350	11.680252392347	1
2	1351	11.680636392347	0
3	0	0	0
4	0	0	0
4	334	6.488471707389	1
4	335	6.488879707389	0
4	349	6.490263707389	1
4	352	6.490639707389	0
4	396	6.69539475692	1
4	398	6.69580275692	0
4	404	6.696171054048	1
4	410	6.696547054048	0
4	420	6.69721075692	1
4	421	6.69759475692	0
4	510	7.065964870144	1
4	514	7.066348870144	0
4	528	7.145862327952	1
4	529	7.146246327952	0
4	637	7.204029570238	1
4	638	7.204405570238	0
4	645	7.206867791619	1
4	646	7.207251791619	0
4	688	7.209019791619	1
4	689	7.209395791619	0
4	761	7.760930294381	1
4	765	7.761322294381	0
4	826	7.97593319364	1
4	827	7.97630919364	0
4	1110	10.79418006177	1
4	1111	10.79456406177	0
4	1132	10.818623314311	1
4	1133	10.818999314311	0
4	1312	11.445505054232	1
4	1313	11.445881054232	0
4	1320	11.461466234688	1
4	1321	11.461850234688	0
5	0	0	0
5	255	6.248657259926	1
5	256	6.249065259926	0
5	270	6.250449259926	1
5	273	6.250825259926	0
5	319	6.41012106473	1
5	320	6.41049706473	0
5	360	6.641421884823	1
5	361	6.641829884823	0
5	373	6.643237884823	1
5	374	6.643621884823	0
5	453	6.756645405438	1
5	454	6.757029405438	0
5	490	7.062254946379	1
5	491	7.062630946379	0
5	498	7.06446946318	1
5	499	7.06485346318	0
5	577	7.148735957518	1
5	580	7.149111957518	0
5	757	7.760930294381	1
5	764	7.761306294381	0
5	764	7.761306294381	1
5	767	7.761698294381	0
5	804	7.780127473616	1
5	805	7.780511473616	0
5	1007	10.491526966522	1
5	1009	10.491902966522	0
5	1140	10.915094396314	1
5	1141	10.915478396314	0
5	1207	11.042507099827	1
5	1208	11.042883099827	0
5	1215	11.076627830196	1
5	1216	11.077011830196	0
6	0	0	0
6	88	3.286072952544	1
6	89	3.286480952544	0
6	103	3.287864952544	1
6	106	3.288240952544	0
6	146	3.506377480392	1
6	147	3.506785480392	0
6	159	3.508193480392	1
6	160	3.508577480392	0
6	717	7.484433635303	1
6	718	7.484817635303	0
6	763	7.760930294381	1
6	766	7.761322294381	0
6	877	9.371836482681	1
6	878	9.372212482681	0
6	915	9.713674307322	1
6	916	9.714058307322	0
6	952	10.406076176764	1
6	953	10.406452176764	0
6	1020	10.494793483811	1
6	1021	10.495177483811	0
6	1057	10.554973910948	1
6	1058	10.555349910948	0
6	1080	10.685534168036	1
6	1081	10.685918168036	0
6	1237	11.213929567554	1
6	1238	11.214305567554	0
6	1365	11.879324629659	1
6	1366	11.879708629659	0
7	0	0	0
8	0	0	0
8	217	6.094149601733	1
8	218	6.094557601733	0
8	230	6.095965601733	1
8	231	6.096349601733	0
8	287	6.33871738139	1
8	288	6.33912538139	0
8	302	6.34050938139	1
8	305	6.34088538139	0
8	438	6.719533121738	1
8	439	6.719917121738	0
8	475	6.779669695974	1
8	476	6.780045695974	0
8	553	7.147843957518	1
8	560	7.148219957518	0
8	560	7.148219957518	1
8	563	7.148611957518	0
8	607	7.151140993316	1
8	608	7.151516993316	0
8	615	7.191243351543	1
8	616	7.191627351543	0
8	679	7.208643791619	1
8	682	7.209019791619	0
8	834	8.050063689931	1
8	835	8.050447689931	0
8	1042	10.547986209053	1
8	1043	10.548362209053	0
8	1065	10.589034641072	1
8	1066	10.589418641072	0
8	1177	10.986047857296	1
8	1178	10.986423857296	0
8	1290	11.3507145638	1
8	1291	11.3510985638	0
9	0	0	0
9	249	6.247749259926	1
9	250	6.248157259926	0
9	262	6.249565259926	1
9	263	6.249949259926	0
9	312	6.40923706473	1
9	313	6.40962106473	0
9	366	6.642329884823	1
9	367	6.642737884823	0
9	381	6.644121884823	1
9	384	6.644497884823	0
9	460	6.757529405438	1
9	461	6.757905405438	0
9	483	7.061370946379	1
9	484	7.061754946379	0
9	505	7.06535346318	1
9	506	7.06572946318	0
9	558	7.147843957518	1
9	561	7.148235957518	0
9	747	7.760046294381	1
9	748	7.760430294381	0
9	790	7.762198294381	1
9	791	7.762574294381	0
9	811	7.781011473616	1
9	812	7.781387473616	0
9	993	10.490642966522	1
9	995	10.491026966522	0
9	1147	10.915978396314	1
9	1148	10.916354396314	0
9	1200	11.041623099827	1
9	1201	11.042007099827	0
9	1222	11.077511830196	1
9	1223	11.077887830196	0
10	0	0	0
10	56	3.155911509629	1
10	57	3.156319509629	0
10	71	3.157703509629	1
10	74	3.158079509629	0
10	178	3.849344489884	1
10	179	3.849752489884	0
10	191	3.851160489884	1
10	192	3.851544489884	0
10	559	7.147843957518	1
10	562	7.148235957518	0
10	732	7.605134340281	1
10	733	7.605518340281	0
10	892	9.480970672567	1
10	893	9.481346672567	0
10	930	10.301064059206	1
10	931	10.301448059206	0
10	967	10.443278239815	1
10	968	10.443654239815	0
10	994	10.490642966522	1
10	996	10.491026966522	0
10	1192	11.037410508745	1
10	1193	11.037786508745	0
10	1275	11.33640241963	1
10	1276	11.33678641963	0
10	1335	11.513804441665	1
10	1336	11.514188441665	0
10	1392	12.333379013642	1
10	1393	12.333755013642	0
11	0	0	0
12	0	0	0
12	18	3.146610919523	1
12	19	3.147018919523	0
12	31	3.148426919523	1
12	32	3.148810919523	0
12	120	3.39732729075	1
12	121	3.39773529075	0
12	135	3.39911929075	1
12	138	3.39949529075	0
12	680	7.208643791619	1
12	683	7.209019791619	0
12	709	7.373375742546	1
12	710	7.373751742546	0
12	855	9.144810327464	1
12	856	9.145194327464	0
12	907	9.699970459792	1
12	908	9.700346459792	0
12	975	10.463268900297	1
12	976	10.463652900297	0
12	1102	10.767170144109	1
12	1103	10.767546144109	0
12	1155	10.921807431624	1
12	1156	10.922191431624	0
12	1245	11.259738887052	1
12	1246	11.260122887052	0
12	1267	11.333563161474	1
12	1268	11.333939161474	0
12	1357	11.681136392347	1
12	1358	11.681512392347	0
13	0	0	0
13	82	3.285164952544	1
13	83	3.285572952544	0
13	95	3.286980952544	1
13	96	3.287364952544	0
13	152	3.507285480392	1
13	153	3.507693480392	0
13	167	3.509077480392	1
13	170	3.509453480392	0
13	724	7.485317635303	1
13	725	7.485693635303	0
13	782	7.761822294381	1
13	785	7.762198294381	0
13	870	9.370952482681	1
13	871	9.371336482681	0
13	922	9.714558307322	1
13	923	9.714934307322	0
13	945	10.405192176764	1
13	946	10.405576176764	0
13	1027	10.495677483811	1
13	1028	10.496053483811	0
13	1050	10.554089910948	1
13	1051	10.554473910948	0
13	1087	10.686418168036	1
13	1088	10.686794168036	0
13	1230	11.213045567554	1
13	1231	11.213429567554	0
13	1372	11.880208629659	1
13	1373	11.880584629659	0
14	0	0	0
14	50	3.155003509629	1
14	51	3.155411509629	0
14	63	3.156819509629	1
14	64	3.157203509629	0
14	184	3.850252489884	1
14	185	3.850660489884	0
14	199	3.852044489884	1
14	202	3.852420489884	0
14	578	7.148735957518	1
14	581	7.149111957518	0
14	739	7.606018340281	1
14	740	7.606394340281	0
14	885	9.480086672567	1
14	886	9.480470672567	0
14	937	10.301948059206	1
14	938	10.302324059206	0
14	960	10.442394239815	1
14	961	10.442778239815	0
14	1008	10.491526966522	1
14	1010	10.491902966522	0
14	1185	11.036526508745	1
14	1186	11.036910508745	0
14	1282	11.33728641963	1
14	1283	11.33766241963	0
14	1342	11.514688441665	1
14	1343	11.515064441665	0
14	1385	12.332495013642	1
14	1386	12.332879013642	0
15	0	0	0
16	0	0	0
17	0	0	0
18	0	0	0
19	0	0	0
20	15	3.146610919523	0
20	28	3.148426919523	0
20	853	9.144810327464	0
20	973	10.463268900297	0
20	1153	10.921807431624	0
20	1243	11.259738887052	0
21	15	3.146610919523	7504
21	28	3.148426919523	794384
21	28	3.148426919523	794384
21	853	9.144810327464	794384
21	973	10.463268900297	794384
21	1153	10.921807431624	794384
21	1243	11.259738887052	794384
22	15	3.146610919523	7504
22	28	3.148426919523	7504
22	853	9.144810327464	7504
22	973	10.463268900297	7504
22	1153	10.921807431624	7504
22	1243	11.259738887052	7504
23	15	3.146610919523	0
23	28	3.148426919523	786880
23	853	9.144810327464	786880
23	973	10.463268900297	786880
23	1153	10.921807431624	786880
23	1243	11.259738887052	786880
24	18	3.146610919523	44
24	31	3.148426919523	41
24	120	3.39732729075	44
24	135	3.39911929075	40
24	680	7.208643791619	40
24	709	7.373375742546	40
24	855	9.144810327464	41
24	907	9.699970459792	40
24	975	10.463268900297	41
24	1102	10.767170144109	40
24	1155	10.921807431624	41
24	1245	11.259738887052	41
24	1267	11.333563161474	40
24	1357	11.681136392347	40
25	18	3.146610919523	44
25	31	3.148426919523	41
25	120	3.39732729075	44
25	135	3.39911929075	40
25	680	7.208643791619	40
25	709	7.373375742546	40
25	855	9.144810327464	41
25	907	9.699970459792	40
25	975	10.463268900297	41
25	1102	10.767170144109	40
25	1155	10.921807431624	41
25	1245	11.259738887052	41
25	1267	11.333563161474	40
25	1357	11.681136392347	40
26	18	3.146610919523	1
26	18	3.146610919523	0
26	31	3.148426919523	1
26	31	3.148426919523	0
26	120	3.39732729075	1
26	120	3.39732729075	0
26	135	3.39911929075	1
26	135	3.39911929075	0
26	680	7.208643791619	1
26	680	7.208643791619	0
26	709	7.373375742546	1
26	709	7.373375742546	0
26	855	9.144810327464	1
26	855	9.144810327464	0
26	907	9.699970459792	1
26	907	9.699970459792	0
26	975	10.463268900297	1
26	975	10.463268900297	0
26	1102	10.767170144109	1
26	1102	10.767170144109	0
26	1155	10.921807431624	1
26	1155	10.921807431624	0
26	1245	11.259738887052	1
26	1245	11.259738887052	0
26	1267	11.333563161474	1
26	1267	11.333563161474	0
26	1357	11.681136392347	1
26	1357	11.681136392347	0
27	18	3.146610919523	44
27	31	3.148426919523	41
27	120	3.39732729075	44
27	135	3.39911929075	40
27	680	7.208643791619	40
27	709	7.373375742546	40
27	855	9.144810327464	41
27	907	9.699970459792	40
27	975	10.463268900297	41
27	1102	10.767170144109	40
27	1155	10.921807431624	41
27	1245	11.259738887052	41
27	1267	11.333563161474	40
27	1357	11.681136392347	40
28	18	3.146610919523	0
28	31	3.148426919523	0
28	120	3.39732729075	0
28	135	3.39911929075	0
28	680	7.208643791619	0
28	709	7.373375742546	0
28	855	9.144810327464	0
28	907	9.699970459792	0
28	975	10.463268900297	0
28	1102	10.767170144109	0
28	1155	10.921807431624	0
28	1245	11.259738887052	0
28	1267	11.333563161474	0
28	1357	11.681136392347	0
29	18	3.146610919523	51
29	31	3.148426919523	48
29	120	3.39732729075	51
29	135	3.39911929075	47
29	680	7.208643791619	47
29	709	7.373375742546	47
29	855	9.144810327464	48
29	907	9.699970459792	47
29	975	10.463268900297	48
29	1102	10.767170144109	47
29	1155	10.921807431624	48
29	1245	11.259738887052	48
29	1267	11.333563161474	47
29	1357	11.681136392347	47
30	20	3.147518919523	51
30	33	3.149310919523	48
30	122	3.39823529075	51
30	139	3.39999529075	47
30	691	7.209519791619	47
30	711	7.374251742546	47
30	857	9.145694327464	48
30	909	9.700846459792	47
30	977	10.464152900297	48
30	1104	10.768046144109	47
30	1157	10.922691431624	48
30	1247	11.260622887052	48
30	1269	11.334439161474	47
30	1359	11.682012392347	47
31	20	3.147518919523	44
31	33	3.149310919523	41
31	122	3.39823529075	44
31	139	3.39999529075	40
31	691	7.209519791619	40
31	711	7.374251742546	40
31	857	9.145694327464	41
31	909	9.700846459792	40
31	977	10.464152900297	41
31	1104	10.768046144109	40
31	1157	10.922691431624	41
31	1247	11.260622887052	41
31	1269	11.334439161474	40
31	1359	11.682012392347	40
32	22	3.147518919523	786652
32	221	6.095057601733	1523537
32	407	6.69630275692	1673848
33	22	3.147518919523	0
33	221	6.095057601733	0
33	407	6.69630275692	0
34	22	3.147518919523	794157
34	22	3.147518919523	794157
34	35	3.149310919523	794157
34	859	9.145694327464	794159
34	979	10.464152900297	794160
34	1159	10.922691431624	794161
34	1249	11.260622887052	794162
35	22	3.147518919523	7504
35	35	3.149310919523	7504
36	22	3.147518919523	0
36	35	3.149310919523	0
36	35	3.149310919523	1
36	859	9.145694327464	0
36	859	9.145694327464	0
36	979	10.464152900297	0
36	979	10.464152900297	0
36	1159	10.922691431624	0
36	1159	10.922691431624	0
36	1249	11.260622887052	0
36	1249	11.260622887052	0
37	22	3.147518919523	7504
37	35	3.149310919523	7503
37	859	9.145694327464	7504
37	979	10.464152900297	7504
37	1159	10.922691431624	7504
37	1249	11.260622887052	7504
38	22	3.147518919523	786653
38	35	3.149310919523	786654
38	859	9.145694327464	786655
38	979	10.464152900297	786656
38	1159	10.922691431624	786657
38	1249	11.260622887052	786658
39	24	3.147518919523	44
39	39	3.149310919523	40
39	114	3.39641929075	44
39	127	3.39823529075	41
39	661	7.207751791619	42
39	702	7.372491742546	41
39	862	9.145694327464	40
39	900	9.699086459792	41
39	982	10.464152900297	40
39	1095	10.766286144109	41
39	1162	10.922691431624	40
39	1252	11.260622887052	40
39	1260	11.332679161474	41
39	1350	11.680252392347	41
40	24	3.147518919523	44
40	39	3.149310919523	40
40	114	3.39641929075	44
40	127	3.39823529075	41
40	661	7.207751791619	42
40	702	7.372491742546	41
40	862	9.145694327464	40
40	900	9.699086459792	41
40	982	10.464152900297	40
40	1095	10.766286144109	41
40	1162	10.922691431624	40
40	1252	11.260622887052	40
40	1260	11.332679161474	41
40	1350	11.680252392347	41
41	24	3.147518919523	1
41	24	3.147518919523	0
41	39	3.149310919523	1
41	39	3.149310919523	0
41	114	3.39641929075	1
41	114	3.39641929075	0
41	127	3.39823529075	1
41	127	3.39823529075	0
41	661	7.207751791619	1
41	661	7.207751791619	0
41	702	7.372491742546	1
41	702	7.372491742546	0
41	862	9.145694327464	1
41	862	9.145694327464	0
41	900	9.699086459792	1
41	900	9.699086459792	0
41	982	10.464152900297	1
41	982	10.464152900297	0
41	1095	10.766286144109	1
41	1095	10.766286144109	0
41	1162	10.922691431624	1
41	1162	10.922691431624	0
41	1252	11.260622887052	1
41	1252	11.260622887052	0
41	1260	11.332679161474	1
41	1260	11.332679161474	0
41	1350	11.680252392347	1
41	1350	11.680252392347	0
42	24	3.147518919523	44
42	39	3.149310919523	40
42	114	3.39641929075	44
42	127	3.39823529075	41
42	661	7.207751791619	42
42	702	7.372491742546	41
42	862	9.145694327464	40
42	900	9.699086459792	41
42	982	10.464152900297	40
42	1095	10.766286144109	41
42	1162	10.922691431624	40
42	1252	11.260622887052	40
42	1260	11.332679161474	41
42	1350	11.680252392347	41
43	24	3.147518919523	0
43	39	3.149310919523	0
43	114	3.39641929075	0
43	127	3.39823529075	0
43	661	7.207751791619	0
43	702	7.372491742546	0
43	862	9.145694327464	0
43	900	9.699086459792	0
43	982	10.464152900297	0
43	1095	10.766286144109	0
43	1162	10.922691431624	0
43	1252	11.260622887052	0
43	1260	11.332679161474	0
43	1350	11.680252392347	0
44	24	3.147518919523	51
44	39	3.149310919523	47
44	114	3.39641929075	51
44	127	3.39823529075	48
44	661	7.207751791619	49
44	702	7.372491742546	48
44	862	9.145694327464	47
44	900	9.699086459792	48
44	982	10.464152900297	47
44	1095	10.766286144109	48
44	1162	10.922691431624	47
44	1252	11.260622887052	47
44	1260	11.332679161474	48
44	1350	11.680252392347	48
45	26	3.148426919523	51
45	43	3.150186919523	47
45	116	3.39732729075	51
45	129	3.39911929075	48
45	670	7.208643791619	49
45	704	7.373375742546	48
45	864	9.146570327464	47
45	902	9.699970459792	48
45	984	10.465028900297	47
45	1097	10.767170144109	48
45	1164	10.923567431624	47
45	1254	11.261498887052	47
45	1262	11.333563161474	48
45	1352	11.681136392347	48
46	26	3.148426919523	44
46	43	3.150186919523	40
46	116	3.39732729075	44
46	129	3.39911929075	41
46	670	7.208643791619	42
46	704	7.373375742546	41
46	864	9.146570327464	40
46	902	9.699970459792	41
46	984	10.465028900297	40
46	1097	10.767170144109	41
46	1164	10.923567431624	40
46	1254	11.261498887052	40
46	1262	11.333563161474	41
46	1352	11.681136392347	41
47	28	3.148426919523	786879
47	45	3.150186919523	786880
47	866	9.146570327464	786880
47	986	10.465028900297	786880
47	1166	10.923567431624	786880
47	1256	11.261498887052	786880
48	28	3.148426919523	786653
48	45	3.150186919523	786654
48	866	9.146570327464	786655
48	986	10.465028900297	786656
48	1166	10.923567431624	786657
48	1256	11.261498887052	786658
49	28	3.148426919523	7504
49	45	3.150186919523	7503
49	866	9.146570327464	7504
49	986	10.465028900297	7504
49	1166	10.923567431624	7504
49	1256	11.261498887052	7504
50	28	3.148426919523	1
50	45	3.150186919523	0
50	853	9.144810327464	1
50	866	9.146570327464	0
50	973	10.463268900297	1
50	986	10.465028900297	0
50	1153	10.921807431624	1
50	1166	10.923567431624	0
50	1243	11.259738887052	1
50	1256	11.261498887052	0
51	35	3.149310919523	786653
51	859	9.145694327464	786654
51	979	10.464152900297	786655
51	1159	10.922691431624	786656
51	1249	11.260622887052	786657
52	35	3.149310919523	786880
52	859	9.145694327464	786880
52	979	10.464152900297	786880
52	1159	10.922691431624	786880
52	1249	11.260622887052	786880
53	35	3.149310919523	0
54	35	3.149310919523	1072
55	35	3.149310919523	4294967295
56	35	3.149310919523	0
56	859	9.145694327464	0
56	979	10.464152900297	0
56	1159	10.922691431624	0
56	1249	11.260622887052	0
57	45	3.150186919523	0.00176
57	866	9.146570327464	0.00176
57	986	10.465028900297	0.00176
57	1166	10.923567431624	0.00176
57	1256	11.261498887052	0.00176
58	45	3.150186919523	0.00022
58	866	9.146570327464	0.0004125
58	986	10.465028900297	0.0005809375
58	1166	10.923567431624	0.000728320313
58	1256	11.261498887052	0.000857280274
59	45	3.150186919523	0.65647
59	866	9.146570327464	0.57460375
59	986	10.465028900297	0.50294671875
59	1166	10.923567431624	0.440225761719
59	1256	11.261498887052	0.385326501465
60	45	3.150186919523	2.6261
60	866	9.146570327464	2.2988275
60	986	10.465028900297	2.0123678125
60	1166	10.923567431624	1.761631367189
60	1256	11.261498887052	1.542163286134
61	45	3.150186919523	1072
61	866	9.146570327464	1072
61	986	10.465028900297	1608
61	1166	10.923567431624	2144
61	1256	11.261498887052	2680
62	45	3.150186919523	4294967295
62	866	9.146570327464	4294967295
62	986	10.465028900297	4294967295
62	1166	10.923567431624	4294967295
62	1256	11.261498887052	4294967295
63	45	3.150186919523	0
63	866	9.146570327464	0
63	986	10.465028900297	0
63	1166	10.923567431624	0
63	1256	11.261498887052	0
64	47	3.155003509629	0
64	60	3.156819509629	0
64	883	9.480086672567	0
64	958	10.442394239815	0
64	1183	11.036526508745	0
64	1383	12.332495013642	0
65	47	3.155003509629	7504
65	60	3.156819509629	796482
65	60	3.156819509629	796482
65	883	9.480086672567	796482
65	958	10.442394239815	796482
65	1183	11.036526508745	796482
65	1383	12.332495013642	796482
66	47	3.155003509629	7504
66	60	3.156819509629	7504
66	883	9.480086672567	7504
66	958	10.442394239815	7504
66	1183	11.036526508745	7504
66	1383	12.332495013642	7504
67	47	3.155003509629	0
67	60	3.156819509629	788978
67	883	9.480086672567	788978
67	958	10.442394239815	788978
67	1183	11.036526508745	788978
67	1383	12.332495013642	788978
68	50	3.155003509629	44
68	63	3.156819509629	41
68	184	3.850252489884	44
68	199	3.852044489884	40
68	578	7.148735957518	40
68	739	7.606018340281	40
68	885	9.480086672567	41
68	937	10.301948059206	40
68	960	10.442394239815	41
68	1008	10.491526966522	40
68	1185	11.036526508745	41
68	1282	11.33728641963	40
68	1342	11.514688441665	40
68	1385	12.332495013642	41
69	50	3.155003509629	44
69	63	3.156819509629	41
69	184	3.850252489884	44
69	199	3.852044489884	40
69	578	7.148735957518	40
69	739	7.606018340281	40
69	885	9.480086672567	41
69	937	10.301948059206	40
69	960	10.442394239815	41
69	1008	10.491526966522	40
69	1185	11.036526508745	41
69	1282	11.33728641963	40
69	1342	11.514688441665	40
69	1385	12.332495013642	41
70	50	3.155003509629	1
70	50	3.155003509629	0
70	63	3.156819509629	1
70	63	3.156819509629	0
70	184	3.850252489884	1
70	184	3.850252489884	0
70	199	3.852044489884	1
70	199	3.852044489884	0
70	578	7.148735957518	1
70	578	7.148735957518	0
70	739	7.606018340281	1
70	739	7.606018340281	0
70	885	9.480086672567	1
70	885	9.480086672567	0
70	937	10.301948059206	1
70	937	10.301948059206	0
70	960	10.442394239815	1
70	960	10.442394239815	0
70	1008	10.491526966522	1
70	1008	10.491526966522	0
70	1185	11.036526508745	1
70	1185	11.036526508745	0
70	1282	11.33728641963	1
70	1282	11.33728641963	0
70	1342	11.514688441665	1
70	1342	11.514688441665	0
70	1385	12.332495013642	1
70	1385	12.332495013642	0
71	50	3.155003509629	44
71	63	3.156819509629	41
71	184	3.850252489884	44
71	199	3.852044489884	40
71	578	7.148735957518	40
71	739	7.606018340281	40
71	885	9.480086672567	41
71	937	10.301948059206	40
71	960	10.442394239815	41
71	1008	10.491526966522	40
71	1185	11.036526508745	41
71	1282	11.33728641963	40
71	1342	11.514688441665	40
71	1385	12.332495013642	41
72	50	3.155003509629	0
72	63	3.156819509629	0
72	184	3.850252489884	0
72	199	3.852044489884	0
72	578	7.148735957518	0
72	739	7.606018340281	0
72	885	9.480086672567	0
72	937	10.301948059206	0
72	960	10.442394239815	0
72	1008	10.491526966522	0
72	1185	11.036526508745	0
72	1282	11.33728641963	0
72	1342	11.514688441665	0
72	1385	12.332495013642	0
73	50	3.155003509629	51
73	63	3.156819509629	48
73	184	3.850252489884	51
73	199	3.852044489884	47
73	578	7.148735957518	47
73	739	7.606018340281	47
73	885	9.480086672567	48
73	937	10.301948059206	47
73	960	10.442394239815	48
73	1008	10.491526966522	47
73	1185	11.036526508745	48
73	1282	11.33728641963	47
73	1342	11.514688441665	47
73	1385	12.332495013642	48
74	52	3.155911509629	51
74	65	3.157703509629	48
74	186	3.851160489884	51
74	203	3.852920489884	47
74	589	7.149611957518	47
74	741	7.606894340281	47
74	887	9.480970672567	48
74	939	10.302824059206	47
74	962	10.443278239815	48
74	1012	10.492402966522	47
74	1187	11.037410508745	48
74	1284	11.33816241963	47
74	1344	11.515564441665	47
74	1387	12.333379013642	48
75	52	3.155911509629	44
75	65	3.157703509629	41
75	186	3.851160489884	44
75	203	3.852920489884	40
75	589	7.149611957518	40
75	741	7.606894340281	40
75	887	9.480970672567	41
75	939	10.302824059206	40
75	962	10.443278239815	41
75	1012	10.492402966522	40
75	1187	11.037410508745	41
75	1284	11.33816241963	40
75	1344	11.515564441665	40
75	1387	12.333379013642	41
76	54	3.155911509629	788750
76	285	6.33871738139	1584452
76	364	6.642329884823	1660355
77	54	3.155911509629	0
77	285	6.33871738139	0
77	364	6.642329884823	0
78	54	3.155911509629	796255
78	54	3.155911509629	796255
78	67	3.157703509629	796255
78	889	9.480970672567	796257
78	964	10.443278239815	796258
78	1189	11.037410508745	796259
78	1389	12.333379013642	796260
79	54	3.155911509629	7504
79	67	3.157703509629	7504
80	54	3.155911509629	0
80	67	3.157703509629	0
80	67	3.157703509629	1
80	889	9.480970672567	0
80	889	9.480970672567	0
80	964	10.443278239815	0
80	964	10.443278239815	0
80	1189	11.037410508745	0
80	1189	11.037410508745	0
80	1389	12.333379013642	0
80	1389	12.333379013642	0
81	54	3.155911509629	7504
81	67	3.157703509629	7503
81	889	9.480970672567	7504
81	964	10.443278239815	7504
81	1189	11.037410508745	7504
81	1389	12.333379013642	7504
82	54	3.155911509629	788751
82	67	3.157703509629	788752
82	889	9.480970672567	788753
82	964	10.443278239815	788754
82	1189	11.037410508745	788755
82	1389	12.333379013642	788756
83	56	3.155911509629	44
83	71	3.157703509629	40
83	178	3.849344489884	44
83	191	3.851160489884	41
83	559	7.147843957518	42
83	732	7.605134340281	41
83	892	9.480970672567	40
83	930	10.301064059206	41
83	967	10.443278239815	40
83	994	10.490642966522	41
83	1192	11.037410508745	40
83	1275	11.33640241963	41
83	1335	11.513804441665	41
83	1392	12.333379013642	40
84	56	3.155911509629	44
84	71	3.157703509629	40
84	178	3.849344489884	44
84	191	3.851160489884	41
84	559	7.147843957518	42
84	732	7.605134340281	41
84	892	9.480970672567	40
84	930	10.301064059206	41
84	967	10.443278239815	40
84	994	10.490642966522	41
84	1192	11.037410508745	40
84	1275	11.33640241963	41
84	1335	11.513804441665	41
84	1392	12.333379013642	40
85	56	3.155911509629	1
85	56	3.155911509629	0
85	71	3.157703509629	1
85	71	3.157703509629	0
85	178	3.849344489884	1
85	178	3.849344489884	0
85	191	3.851160489884	1
85	191	3.851160489884	0
85	559	7.147843957518	1
85	559	7.147843957518	0
85	732	7.605134340281	1
85	732	7.605134340281	0
85	892	9.480970672567	1
85	892	9.480970672567	0
85	930	10.301064059206	1
85	930	10.301064059206	0
85	967	10.443278239815	1
85	967	10.443278239815	0
85	994	10.490642966522	1
85	994	10.490642966522	0
85	1192	11.037410508745	1
85	1192	11.037410508745	0
85	1275	11.33640241963	1
85	1275	11.33640241963	0
85	1335	11.513804441665	1
85	1335	11.513804441665	0
85	1392	12.333379013642	1
85	1392	12.333379013642	0
86	56	3.155911509629	44
86	71	3.157703509629	40
86	178	3.849344489884	44
86	191	3.851160489884	41
86	559	7.147843957518	42
86	732	7.605134340281	41
86	892	9.480970672567	40
86	930	10.301064059206	41
86	967	10.443278239815	40
86	994	10.490642966522	41
86	1192	11.037410508745	40
86	1275	11.33640241963	41
86	1335	11.513804441665	41
86	1392	12.333379013642	40
87	56	3.155911509629	0
87	71	3.157703509629	0
87	178	3.849344489884	0
87	191	3.851160489884	0
87	559	7.147843957518	0
87	732	7.605134340281	0
87	892	9.480970672567	0
87	930	10.301064059206	0
87	967	10.443278239815	0
87	994	10.490642966522	0
87	1192	11.037410508745	0
87	1275	11.33640241963	0
87	1335	11.513804441665	0
87	1392	12.333379013642	0
88	56	3.155911509629	51
88	71	3.157703509629	47
88	178	3.849344489884	51
88	191	3.851160489884	48
88	559	7.147843957518	49
88	732	7.605134340281	48
88	892	9.480970672567	47
88	930	10.301064059206	48
88	967	10.443278239815	47
88	994	10.490642966522	48
88	1192	11.037410508745	47
88	1275	11.33640241963	48
88	1335	11.513804441665	48
88	1392	12.333379013642	47
89	58	3.156819509629	51
89	75	3.158579509629	47
89	180	3.850252489884	51
89	193	3.852044489884	48
89	568	7.148735957518	49
89	734	7.606018340281	48
89	894	9.481846672567	47
89	932	10.301948059206	48
89	969	10.444154239815	47
89	998	10.491526966522	48
89	1194	11.038286508745	47
89	1277	11.33728641963	48
89	1337	11.514688441665	48
89	1394	12.334255013642	47
90	58	3.156819509629	44
90	75	3.158579509629	40
90	180	3.850252489884	44
90	193	3.852044489884	41
90	568	7.148735957518	42
90	734	7.606018340281	41
90	894	9.481846672567	40
90	932	10.301948059206	41
[...]
352	681	7.209019791619	49
352	792	7.762698294381	47
352	821	7.97593319364	48
352	1119	10.79594006177	47
352	1127	10.818623314311	48
352	1307	11.445505054232	48
352	1329	11.463226234688	47
353	330	6.488471707389	44
353	343	6.490263707389	41
353	399	6.696171054048	41
353	415	6.69721075692	44
353	432	6.69897075692	40
353	522	7.067724870144	40
353	542	7.147622327952	40
353	632	7.204029570238	41
353	666	7.208627791619	40
353	681	7.209019791619	42
353	792	7.762698294381	40
353	821	7.97593319364	41
353	1119	10.79594006177	40
353	1127	10.818623314311	41
353	1307	11.445505054232	41
353	1329	11.463226234688	40
354	332	6.488471707389	1629395
354	332	6.488471707389	1629395
354	345	6.490263707389	1629395
354	401	6.696171054048	1629397
354	634	7.204029570238	1629398
354	685	7.209019791619	1629400
354	823	7.97593319364	1629401
354	1129	10.818623314311	1629402
354	1309	11.445505054232	1629403
355	332	6.488471707389	7504
355	345	6.490263707389	7504
356	332	6.488471707389	0
356	345	6.490263707389	0
356	345	6.490263707389	1
356	401	6.696171054048	0
356	401	6.696171054048	0
356	634	7.204029570238	0
356	634	7.204029570238	0
356	685	7.209019791619	0
356	685	7.209019791619	0
356	823	7.97593319364	0
356	823	7.97593319364	0
356	1129	10.818623314311	0
356	1129	10.818623314311	0
356	1309	11.445505054232	0
356	1309	11.445505054232	0
357	332	6.488471707389	7504
357	345	6.490263707389	7503
357	401	6.696171054048	7504
357	634	7.204029570238	7504
357	685	7.209019791619	7504
357	823	7.97593319364	7504
357	1129	10.818623314311	7504
357	1309	11.445505054232	7504
358	332	6.488471707389	1621891
358	345	6.490263707389	1621892
358	401	6.696171054048	1621893
358	634	7.204029570238	1621894
358	685	7.209019791619	1621896
358	823	7.97593319364	1621897
358	1129	10.818623314311	1621898
358	1309	11.445505054232	1621899
359	334	6.488471707389	44
359	349	6.490263707389	40
359	396	6.69539475692	44
359	404	6.696171054048	40
359	420	6.69721075692	41
359	510	7.065964870144	41
359	528	7.145862327952	41
359	637	7.204029570238	40
359	645	7.206867791619	41
359	688	7.209019791619	40
359	761	7.760930294381	42
359	826	7.97593319364	40
359	1110	10.79418006177	41
359	1132	10.818623314311	40
359	1312	11.445505054232	40
359	1320	11.461466234688	41
360	334	6.488471707389	44
360	349	6.490263707389	40
360	396	6.69539475692	44
360	404	6.696171054048	40
360	420	6.69721075692	41
360	510	7.065964870144	41
360	528	7.145862327952	41
360	637	7.204029570238	40
360	645	7.206867791619	41
360	688	7.209019791619	40
360	761	7.760930294381	42
360	826	7.97593319364	40
360	1110	10.79418006177	41
360	1132	10.818623314311	40
360	1312	11.445505054232	40
360	1320	11.461466234688	41
361	334	6.488471707389	1
361	334	6.488471707389	0
361	349	6.490263707389	1
361	349	6.490263707389	0
361	396	6.69539475692	1
361	396	6.69539475692	0
361	404	6.696171054048	1
361	404	6.696171054048	0
361	420	6.69721075692	1
361	420	6.69721075692	0
361	510	7.065964870144	1
361	510	7.065964870144	0
361	528	7.145862327952	1
361	528	7.145862327952	0
361	637	7.204029570238	1
361	637	7.204029570238	0
361	645	7.206867791619	1
361	645	7.206867791619	0
361	688	7.209019791619	1
361	688	7.209019791619	0
361	761	7.760930294381	1
361	761	7.760930294381	0
361	826	7.97593319364	1
361	826	7.97593319364	0
361	1110	10.79418006177	1
361	1110	10.79418006177	0
361	1132	10.818623314311	1
361	1132	10.818623314311	0
361	1312	11.445505054232	1
361	1312	11.445505054232	0
361	1320	11.461466234688	1
361	1320	11.461466234688	0
362	334	6.488471707389	44
362	349	6.490263707389	40
362	396	6.69539475692	44
362	404	6.696171054048	40
362	420	6.69721075692	41
362	510	7.065964870144	41
362	528	7.145862327952	41
362	637	7.204029570238	40
362	645	7.206867791619	41
362	688	7.209019791619	40
362	761	7.760930294381	42
362	826	7.97593319364	40
362	1110	10.79418006177	41
362	1132	10.818623314311	40
362	1312	11.445505054232	40
362	1320	11.461466234688	41
363	334	6.488471707389	0
363	349	6.490263707389	0
363	396	6.69539475692	0
363	404	6.696171054048	0
363	420	6.69721075692	0
363	510	7.065964870144	0
363	528	7.145862327952	0
363	637	7.204029570238	0
363	645	7.206867791619	0
363	688	7.209019791619	0
363	761	7.760930294381	0
363	826	7.97593319364	0
363	1110	10.79418006177	0
363	1132	10.818623314311	0
363	1312	11.445505054232	0
363	1320	11.461466234688	0
364	334	6.488471707389	51
364	349	6.490263707389	47
364	396	6.69539475692	51
364	404	6.696171054048	47
364	420	6.69721075692	48
364	510	7.065964870144	48
364	528	7.145862327952	48
364	637	7.204029570238	47
364	645	7.206867791619	48
364	688	7.209019791619	47
364	761	7.760930294381	49
364	826	7.97593319364	47
364	1110	10.79418006177	48
364	1132	10.818623314311	47
364	1312	11.445505054232	47
364	1320	11.461466234688	48
365	336	6.489379707389	51
365	353	6.491139707389	47
365	405	6.69630275692	51
365	412	6.697047054048	47
365	422	6.69809475692	48
365	515	7.066848870144	48
365	530	7.146746327952	48
365	639	7.204905570238	47
365	647	7.207751791619	48
365	696	7.209895791619	47
365	771	7.761822294381	49
365	828	7.97680919364	47
365	1112	10.79506406177	48
365	1134	10.819499314311	47
365	1314	11.446381054232	47
365	1322	11.462350234688	48
366	336	6.489379707389	44
366	353	6.491139707389	40
366	405	6.69630275692	44
366	412	6.697047054048	40
366	422	6.69809475692	41
366	515	7.066848870144	41
366	530	7.146746327952	41
366	639	7.204905570238	40
366	647	7.207751791619	41
366	696	7.209895791619	40
366	771	7.761822294381	42
366	828	7.97680919364	40
366	1112	10.79506406177	41
366	1134	10.819499314311	40
366	1314	11.446381054232	40
366	1322	11.462350234688	41
367	338	6.489379707389	1622117
367	355	6.491139707389	1622118
367	414	6.697047054048	1622118
367	641	7.204905570238	1622118
367	698	7.209895791619	1622118
367	830	7.97680919364	1622118
367	1136	10.819499314311	1622118
367	1316	11.446381054232	1622118
368	338	6.489379707389	1621891
368	355	6.491139707389	1621892
368	414	6.697047054048	1621893
368	641	7.204905570238	1621894
368	698	7.209895791619	1621896
368	830	7.97680919364	1621897
368	1136	10.819499314311	1621898
368	1316	11.446381054232	1621899
369	338	6.489379707389	7504
369	355	6.491139707389	7503
369	414	6.697047054048	7504
369	641	7.204905570238	7504
369	698	7.209895791619	7504
369	830	7.97680919364	7504
369	1136	10.819499314311	7504
369	1316	11.446381054232	7504
370	338	6.489379707389	1
370	355	6.491139707389	0
370	389	6.695287054048	1
370	414	6.697047054048	0
370	628	7.203145570238	1
370	641	7.204905570238	0
370	652	7.207751791619	2
370	698	7.209895791619	0
370	817	7.97504919364	1
370	830	7.97680919364	0
370	1123	10.817739314311	1
370	1136	10.819499314311	0
370	1303	11.444621054232	1
370	1316	11.446381054232	0
371	345	6.490263707389	1621891
371	401	6.696171054048	1621892
371	634	7.204029570238	1621893
371	685	7.209019791619	1621894
371	823	7.97593319364	1621896
371	1129	10.818623314311	1621897
371	1309	11.445505054232	1621898
372	345	6.490263707389	1622118
372	401	6.696171054048	1622118
372	634	7.204029570238	1622118
372	685	7.209019791619	1622118
372	823	7.97593319364	1622118
372	1129	10.818623314311	1622118
372	1309	11.445505054232	1622118
373	345	6.490263707389	0
374	345	6.490263707389	1072
375	345	6.490263707389	4294967295
376	345	6.490263707389	0
376	401	6.696171054048	0
376	634	7.204029570238	0
376	685	7.209019791619	0
376	823	7.97593319364	0
376	1129	10.818623314311	0
376	1309	11.445505054232	0
377	355	6.491139707389	0.00176
377	414	6.697047054048	0.00176
377	641	7.204905570238	0.00176
377	698	7.209895791619	0.002144
377	830	7.97680919364	0.00176
377	1136	10.819499314311	0.00176
377	1316	11.446381054232	0.00176
378	355	6.491139707389	0.00022
378	414	6.697047054048	0.0004125
378	641	7.204905570238	0.0005809375
378	698	7.209895791619	0.000776320313
378	830	7.97680919364	0.000899280274
378	1136	10.819499314311	0.00100687024
378	1316	11.446381054232	0.00110101146
379	355	6.491139707389	0.65647
379	414	6.697047054048	0.57460375
379	641	7.204905570238	0.50294671875
379	698	7.209895791619	0.440273761719
379	830	7.97680919364	0.385362501465
379	1136	10.819499314311	0.337299778748
379	1316	11.446381054232	0.295231447625
380	355	6.491139707389	2.6261
380	414	6.697047054048	2.2988275
380	641	7.204905570238	2.0123678125
380	698	7.209895791619	1.761871367189
380	830	7.97680919364	1.542349286134
380	1136	10.819499314311	1.350205985232
380	1316	11.446381054232	1.18202680196
381	355	6.491139707389	1072
381	414	6.697047054048	1608
381	641	7.204905570238	2144
381	698	7.209895791619	2680
381	830	7.97680919364	3216
381	1136	10.819499314311	1072
381	1316	11.446381054232	1608
382	355	6.491139707389	4294967295
382	414	6.697047054048	4294967295
382	641	7.204905570238	4294967295
382	698	7.209895791619	4294967295
382	830	7.97680919364	4294967295
382	1136	10.819499314311	4294967295
382	1316	11.446381054232	4294967295
383	355	6.491139707389	0
383	414	6.697047054048	0
383	641	7.204905570238	0
383	698	7.209895791619	0
383	830	7.97680919364	0
383	1136	10.819499314311	0
383	1316	11.446381054232	0
384	357	6.641421884823	0
384	370	6.643237884823	0
384	451	6.756645405438	0
384	496	7.06446946318	0
384	755	7.760930294381	0
384	802	7.780127473616	0
384	1138	10.915094396314	0
384	1213	11.076627830196	0
385	357	6.641421884823	7504
385	370	6.643237884823	1668087
385	370	6.643237884823	1668087
385	451	6.756645405438	1668087
385	496	7.06446946318	1668087
385	755	7.760930294381	1668087
385	802	7.780127473616	1668087
385	1138	10.915094396314	1668087
385	1213	11.076627830196	1668087
386	357	6.641421884823	7504
386	370	6.643237884823	7504
386	451	6.756645405438	7504
386	496	7.06446946318	7504
386	755	7.760930294381	7504
386	802	7.780127473616	7504
386	1138	10.915094396314	7504
386	1213	11.076627830196	7504
387	357	6.641421884823	0
387	370	6.643237884823	1660583
387	451	6.756645405438	1660583
387	496	7.06446946318	1660583
387	755	7.760930294381	1660583
387	802	7.780127473616	1660583
387	1138	10.915094396314	1660583
387	1213	11.076627830196	1660583
388	364	6.642329884823	1667860
388	364	6.642329884823	1667860
388	377	6.644121884823	1667860
388	457	6.757529405438	1667862
388	502	7.06535346318	1667863
388	787	7.762198294381	1667865
388	808	7.781011473616	1667866
388	1144	10.915978396314	1667867
388	1219	11.077511830196	1667868
389	364	6.642329884823	7504
389	377	6.644121884823	7504
390	364	6.642329884823	0
390	377	6.644121884823	0
390	377	6.644121884823	1
390	457	6.757529405438	0
390	457	6.757529405438	0
390	502	7.06535346318	0
390	502	7.06535346318	0
390	787	7.762198294381	0
390	787	7.762198294381	0
390	808	7.781011473616	0
390	808	7.781011473616	0
390	1144	10.915978396314	0
390	1144	10.915978396314	0
390	1219	11.077511830196	0
390	1219	11.077511830196	0
391	364	6.642329884823	7504
391	377	6.644121884823	7503
391	457	6.757529405438	7504
391	502	7.06535346318	7504
391	787	7.762198294381	7504
391	808	7.781011473616	7504
391	1144	10.915978396314	7504
391	1219	11.077511830196	7504
392	364	6.642329884823	1660356
392	377	6.644121884823	1660357
392	457	6.757529405438	1660358
392	502	7.06535346318	1660359
392	787	7.762198294381	1660361
392	808	7.781011473616	1660362
392	1144	10.915978396314	1660363
392	1219	11.077511830196	1660364
393	370	6.643237884823	1660582
393	387	6.644997884823	1660583
393	464	6.758405405438	1660583
393	513	7.06622946318	1660583
393	800	7.763074294381	1660583
393	815	7.781887473616	1660583
393	1151	10.916854396314	1660583
393	1226	11.078387830196	1660583
394	370	6.643237884823	1660356
394	387	6.644997884823	1660357
394	464	6.758405405438	1660358
394	513	7.06622946318	1660359
394	800	7.763074294381	1660361
394	815	7.781887473616	1660362
394	1151	10.916854396314	1660363
394	1226	11.078387830196	1660364
395	370	6.643237884823	7504
395	387	6.644997884823	7503
395	464	6.758405405438	7504
395	513	7.06622946318	7504
395	800	7.763074294381	7504
395	815	7.781887473616	7504
395	1151	10.916854396314	7504
395	1226	11.078387830196	7504
396	370	6.643237884823	1
396	387	6.644997884823	0
396	451	6.756645405438	1
396	464	6.758405405438	0
396	496	7.06446946318	1
396	513	7.06622946318	0
396	755	7.760930294381	2
396	800	7.763074294381	0
396	802	7.780127473616	1
396	815	7.781887473616	0
396	1138	10.915094396314	1
396	1151	10.916854396314	0
396	1213	11.076627830196	1
396	1226	11.078387830196	0
397	377	6.644121884823	1660356
397	457	6.757529405438	1660357
397	502	7.06535346318	1660358
397	787	7.762198294381	1660359
397	808	7.781011473616	1660361
397	1144	10.915978396314	1660362
397	1219	11.077511830196	1660363
398	377	6.644121884823	1660583
398	457	6.757529405438	1660583
398	502	7.06535346318	1660583
398	787	7.762198294381	1660583
398	808	7.781011473616	1660583
398	1144	10.915978396314	1660583
398	1219	11.077511830196	1660583
399	377	6.644121884823	0
400	377	6.644121884823	1072
401	377	6.644121884823	4294967295
402	377	6.644121884823	0
402	457	6.757529405438	0
402	502	7.06535346318	0
402	787	7.762198294381	0
402	808	7.781011473616	0
402	1144	10.915978396314	0
402	1219	11.077511830196	0
403	387	6.644997884823	0.00176
403	464	6.758405405438	0.00176
403	513	7.06622946318	0.00176
403	800	7.763074294381	0.002144
403	815	7.781887473616	0.00176
403	1151	10.916854396314	0.00176
403	1226	11.078387830196	0.00176
404	387	6.644997884823	0.00022
404	464	6.758405405438	0.0004125
404	513	7.06622946318	0.0005809375
404	800	7.763074294381	0.000776320313
404	815	7.781887473616	0.000899280274
404	1151	10.916854396314	0.00100687024
404	1226	11.078387830196	0.00110101146
405	387	6.644997884823	0.65647
405	464	6.758405405438	0.57460375
405	513	7.06622946318	0.50294671875
405	800	7.763074294381	0.440273761719
405	815	7.781887473616	0.385362501465
405	1151	10.916854396314	0.337299778748
405	1226	11.078387830196	0.295231447625
406	387	6.644997884823	2.6261
406	464	6.758405405438	2.2988275
406	513	7.06622946318	2.0123678125
406	800	7.763074294381	1.761871367189
406	815	7.781887473616	1.542349286134
406	1151	10.916854396314	1.350205985232
406	1226	11.078387830196	1.18202680196
407	387	6.644997884823	1072
407	464	6.758405405438	1608
407	513	7.06622946318	2144
407	800	7.763074294381	2680
407	815	7.781887473616	3216
407	1151	10.916854396314	1072
407	1226	11.078387830196	1608
408	387	6.644997884823	4294967295
408	464	6.758405405438	4294967295
408	513	7.06622946318	4294967295
408	800	7.763074294381	4294967295
408	815	7.781887473616	4294967295
408	1151	10.916854396314	4294967295
408	1226	11.078387830196	4294967295
409	387	6.644997884823	0
409	464	6.758405405438	0
409	513	7.06622946318	0
409	800	7.763074294381	0
409	815	7.781887473616	0
409	1151	10.916854396314	0
409	1226	11.078387830196	0
410	393	6.69539475692	0
410	417	6.69721075692	0
410	508	7.065964870144	0
410	526	7.145862327952	0
410	643	7.206867791619	0
410	754	7.760930294381	0
410	1108	10.79418006177	0
410	1318	11.461466234688	0
411	393	6.69539475692	7504
411	417	6.69721075692	1681580
411	417	6.69721075692	1681580
411	508	7.065964870144	1681580
411	526	7.145862327952	1681580
411	643	7.206867791619	1681580
411	754	7.760930294381	1681580
411	1108	10.79418006177	1681580
411	1318	11.461466234688	1681580
412	393	6.69539475692	7504
412	417	6.69721075692	7504
412	508	7.065964870144	7504
412	526	7.145862327952	7504
412	643	7.206867791619	7504
412	754	7.760930294381	7504
412	1108	10.79418006177	7504
412	1318	11.461466234688	7504
413	393	6.69539475692	0
413	417	6.69721075692	1674076
413	508	7.065964870144	1674076
413	526	7.145862327952	1674076
413	643	7.206867791619	1674076
413	754	7.760930294381	1674076
413	1108	10.79418006177	1674076
413	1318	11.461466234688	1674076
414	407	6.69630275692	1681353
414	407	6.69630275692	1681353
414	424	6.69809475692	1681353
414	517	7.066848870144	1681355
414	532	7.146746327952	1681356
414	649	7.207751791619	1681357
414	775	7.761822294381	1681359
414	1114	10.79506406177	1681360
414	1324	11.462350234688	1681361
415	407	6.69630275692	7504
415	424	6.69809475692	7504
416	407	6.69630275692	0
416	424	6.69809475692	0
416	424	6.69809475692	1
416	517	7.066848870144	0
416	517	7.066848870144	0
416	532	7.146746327952	0
416	532	7.146746327952	0
416	649	7.207751791619	0
416	649	7.207751791619	0
416	775	7.761822294381	0
416	775	7.761822294381	0
416	1114	10.79506406177	0
416	1114	10.79506406177	0
416	1324	11.462350234688	0
416	1324	11.462350234688	0
417	407	6.69630275692	7504
417	424	6.69809475692	7503
417	517	7.066848870144	7504
417	532	7.146746327952	7504
417	649	7.207751791619	7504
417	775	7.761822294381	7504
417	1114	10.79506406177	7504
417	1324	11.462350234688	7504
418	407	6.69630275692	1673849
418	424	6.69809475692	1673850
418	517	7.066848870144	1673851
418	532	7.146746327952	1673852
418	649	7.207751791619	1673853
418	775	7.761822294381	1673855
418	1114	10.79506406177	1673856
418	1324	11.462350234688	1673857
419	417	6.69721075692	1674075
419	434	6.69897075692	1674076
419	524	7.067724870144	1674076
419	544	7.147622327952	1674076
419	668	7.208627791619	1674076
419	796	7.762698294381	1674076
419	1121	10.79594006177	1674076
419	1331	11.463226234688	1674076
420	417	6.69721075692	1673849
420	434	6.69897075692	1673850
420	524	7.067724870144	1673851
420	544	7.147622327952	1673852
420	668	7.208627791619	1673853
420	796	7.762698294381	1673855
420	1121	10.79594006177	1673856
420	1331	11.463226234688	1673857
421	417	6.69721075692	7504
421	434	6.69897075692	7503
421	524	7.067724870144	7504
421	544	7.147622327952	7504
421	668	7.208627791619	7504
421	796	7.762698294381	7504
421	1121	10.79594006177	7504
421	1331	11.463226234688	7504
422	417	6.69721075692	1
422	434	6.69897075692	0
422	508	7.065964870144	1
422	524	7.067724870144	0
422	526	7.145862327952	1
422	544	7.147622327952	0
422	643	7.206867791619	1
422	668	7.208627791619	0
422	754	7.760930294381	2
422	796	7.762698294381	0
422	1108	10.79418006177	1
422	1121	10.79594006177	0
422	1318	11.461466234688	1
422	1331	11.463226234688	0
423	424	6.69809475692	1673849
423	517	7.066848870144	1673850
423	532	7.146746327952	1673851
423	649	7.207751791619	1673852
423	775	7.761822294381	1673853
423	1114	10.79506406177	1673855
423	1324	11.462350234688	1673856
424	424	6.69809475692	1674076
424	517	7.066848870144	1674076
424	532	7.146746327952	1674076
424	649	7.207751791619	1674076
424	775	7.761822294381	1674076
424	1114	10.79506406177	1674076
424	1324	11.462350234688	1674076
425	424	6.69809475692	0
426	424	6.69809475692	1072
427	424	6.69809475692	4294967295
428	424	6.69809475692	0
428	517	7.066848870144	0
428	532	7.146746327952	0
428	649	7.207751791619	0
428	775	7.761822294381	0
428	1114	10.79506406177	0
428	1324	11.462350234688	0
429	434	6.69897075692	0.00176
429	524	7.067724870144	0.00176
429	544	7.147622327952	0.00176
429	668	7.208627791619	0.00176
429	796	7.762698294381	0.001768
429	1121	10.79594006177	0.00176
429	1331	11.463226234688	0.00176
430	434	6.69897075692	0.00022
430	524	7.067724870144	0.0004125
430	544	7.147622327952	0.0005809375
430	668	7.208627791619	0.000728320313
430	796	7.762698294381	0.000858280274
430	1121	10.79594006177	0.00097099524
430	1331	11.463226234688	0.001069620835
431	434	6.69897075692	0.65647
431	524	7.067724870144	0.57460375
431	544	7.147622327952	0.50294671875
431	668	7.208627791619	0.440225761719
431	796	7.762698294381	0.385327501465
431	1121	10.79594006177	0.337274278748
431	1331	11.463226234688	0.2952136195
432	434	6.69897075692	2.6261
432	524	7.067724870144	2.2988275
432	544	7.147622327952	2.0123678125
432	668	7.208627791619	1.761631367189
432	796	7.762698294381	1.542168286134
432	1121	10.79594006177	1.350068110232
432	1331	11.463226234688	1.181924098835
433	434	6.69897075692	1072
433	524	7.067724870144	1608
433	544	7.147622327952	2144
433	668	7.208627791619	2680
433	796	7.762698294381	3216
433	1121	10.79594006177	1072
433	1331	11.463226234688	1608
434	434	6.69897075692	4294967295
434	524	7.067724870144	4294967295
434	544	7.147622327952	4294967295
434	668	7.208627791619	4294967295
434	796	7.762698294381	4294967295
434	1121	10.79594006177	4294967295
434	1331	11.463226234688	4294967295
435	434	6.69897075692	0
435	524	7.067724870144	0
435	544	7.147622327952	0
435	668	7.208627791619	0
435	796	7.762698294381	0
435	1121	10.79594006177	0
435	1331	11.463226234688	0

