version 2
run L_0-0-20220111-15:06:54-9096
attr configname L_0
attr datetime 20220111-15:06:54
attr experiment L_0
attr inifile omnetpp.ini
attr iterationvars ""
attr iterationvarsf ""
attr measurement ""
attr network scenario
attr processid 9096
attr repetition 0
attr replication #0
attr resultdir results
attr runnumber 0
attr seedset 0
param **.client0.app[0].leave 0.0
param **.ppp[*].ppp.queue.typename "\"DropTailQueue\""
param **.tcp.typename "\"Tcp\""
param **.tcp.nagleEnabled false
param **.cli*.app[*].nPar 5
param **.cli*.app[*].fPar 0
param **.numApps 1
param **.client0.app[*].typename "\"Node\""
param **.client0.app[0].localPort 1000
param **.client0.app[0].localPortL 1234
param **.client0.app[0].connectAddress "\"\""
param **.client0.app[0].connectPort 1234
param **.client1.app[*].typename "\"Node\""
param **.client1.app[0].localPort 1001
param **.client1.app[0].localPortL 1234
param **.client1.app[0].connectAddress "\"\""
param **.client1.app[0].connectPort 1234
param **.client2.app[*].typename "\"Node\""
param **.client2.app[0].localPort 1002
param **.client2.app[0].localPortL 1234
param **.client2.app[0].connectAddress "\"\""
param **.client2.app[0].connectPort 1234
param **.client3.app[*].typename "\"Node\""
param **.client3.app[0].localPort 1003
param **.client3.app[0].localPortL 1234
param **.client3.app[0].connectAddress "\"\""
param **.client3.app[0].connectPort 1234
param **.client4.app[*].typename "\"Node\""
param **.client4.app[0].localPort 1004
param **.client4.app[0].localPortL 1234
param **.client4.app[0].connectAddress "\"\""
param **.client4.app[0].connectPort 1234
param *.configurator.dumpAddresses true
param *.configurator.dumpTopology true
param *.configurator.dumpLinks true
param *.configurator.dumpRoutes true

vector 0 scenario.client0.ppp[0].ppp transmissionState:vector ETV
attr interpolationmode sample-hold
attr source transmissionStateChanged
attr title "tx state, vector"
vector 1 scenario.client0.ppp[1].ppp transmissionState:vector ETV
attr interpolationmode sample-hold
attr source transmissionStateChanged
attr title "tx state, vector"
vector 2 scenario.client0.ppp[2].ppp transmissionState:vector ETV
attr interpolationmode sample-hold
attr source transmissionStateChanged
attr title "tx state, vector"
vector 3 scenario.client0.ppp[3].ppp transmissionState:vector ETV
attr interpolationmode sample-hold
attr source transmissionStateChanged
attr title "tx state, vector"
vector 4 scenario.client1.ppp[0].ppp transmissionState:vector ETV
attr interpolationmode sample-hold
attr source transmissionStateChanged
attr title "tx state, vector"
vector 5 scenario.client1.ppp[1].ppp transmissionState:vector ETV
attr interpolationmode sample-hold
attr source transmissionStateChanged
attr title "tx state, vector"
vector 6 scenario.client1.ppp[2].ppp transmissionState:vector ETV
attr interpolationmode sample-hold
attr source transmissionStateChanged
attr title "tx state, vector"
vector 7 scenario.client1.ppp[3].ppp transmissionState:vector ETV
attr interpolationmode sample-hold
attr source transmissionStateChanged
attr title "tx state, vector"
vector 8 scenario.client2.ppp[0].ppp transmissionState:vector ETV
attr interpolationmode sample-hold
attr source transmissionStateChanged
attr title "tx state, vector"
vector 9 scenario.client2.ppp[1].ppp transmissionState:vector ETV
attr interpolationmode sample-hold
attr source transmissionStateChanged
attr title "tx state, vector"
vector 10 scenario.client2.ppp[2].ppp transmissionState:vector ETV
attr interpolationmode sample-hold
attr source transmissionStateChanged
attr title "tx state, vector"
vector 11 scenario.client2.ppp[3].ppp transmissionState:vector ETV
attr interpolationmode sample-hold
attr source transmissionStateChanged
attr title "tx state, vector"
vector 12 scenario.client3.ppp[0].ppp transmissionState:vector ETV
attr interpolationmode sample-hold
attr source transmissionStateChanged
attr title "tx state, vector"
vector 13 scenario.client3.ppp[1].ppp transmissionState:vector ETV
attr interpolationmode sample-hold
attr source transmissionStateChanged
attr title "tx state, vector"
vector 14 scenario.client3.ppp[2].ppp transmissionState:vector ETV
attr interpolationmode sample-hold
attr source transmissionStateChanged
attr title "tx state, vector"
vector 15 scenario.client3.ppp[3].ppp transmissionState:vector ETV
attr interpolationmode sample-hold
attr source transmissionStateChanged
attr title "tx state, vector"
vector 16 scenario.client4.ppp[0].ppp transmissionState:vector ETV
attr interpolationmode sample-hold
attr source transmissionStateChanged
attr title "tx state, vector"
vector 17 scenario.client4.ppp[1].ppp transmissionState:vector ETV
attr interpolationmode sample-hold
attr source transmissionStateChanged
attr title "tx state, vector"
vector 18 scenario.client4.ppp[2].ppp transmissionState:vector ETV
attr interpolationmode sample-hold
attr source transmissionStateChanged
attr title "tx state, vector"
vector 19 scenario.client4.ppp[3].ppp transmissionState:vector ETV
attr interpolationmode sample-hold
attr source transmissionStateChanged
attr title "tx state, vector"
vector 20 scenario.client0.tcp.conn-25 tcpRcvQueueBytes:vector ETV
attr interpolationmode sample-hold
vector 21 scenario.client0.tcp.conn-25 rcvAdv:vector ETV
attr interpolationmode sample-hold
vector 22 scenario.client0.tcp.conn-25 rcvWnd:vector ETV
attr interpolationmode sample-hold
vector 23 scenario.client0.tcp.conn-25 sndAck:vector ETV
attr interpolationmode sample-hold
vector 24 scenario.client0.ppp[1].ppp rcvdPkFromHl:vector(packetBytes) ETV
attr interpolationmode none
attr source packetReceivedFromUpper
attr title "packets received from higher layer, vector(packetBytes)"
vector 25 scenario.client0.ppp[1].ppp.queue packetPushed:vector(packetBytes) ETV
attr interpolationmode none
attr title "packet pushed, vector(packetBytes)"
vector 26 scenario.client0.ppp[1].ppp.queue queueLength:vector ETV
attr interpolationmode sample-hold
attr source "count(packetPushed) - count(packetPopped) - count(packetRemoved) - count(packetDropped)"
attr title "queue length, vector"
vector 27 scenario.client0.ppp[1].ppp.queue packetPopped:vector(packetBytes) ETV
attr interpolationmode none
attr title "packet popped, vector(packetBytes)"
vector 28 scenario.client0.ppp[1].ppp.queue queueingTime:vector ETV
attr interpolationmode none
attr source queueingTime(packetPopped)
attr title "queueing times, vector"
attr unit s
vector 29 scenario.client0.ppp[1].ppp txPk:vector(packetBytes) ETV
attr interpolationmode none
attr source packetSentToLower
attr title "packets transmitted, vector(packetBytes)"
vector 30 scenario.client2.ppp[0].ppp rxPkOk:vector(packetBytes) ETV
attr interpolationmode none
attr source rxPkOk
attr title "packets received OK, vector(packetBytes)"
vector 31 scenario.client2.ppp[0].ppp passedUpPk:vector(packetBytes) ETV
attr interpolationmode none
attr source packetSentToUpper
attr title "packets passed to higher layer, vector(packetBytes)"
vector 32 scenario.client2.tcp.conn-2 rcvSeq:vector ETV
attr interpolationmode sample-hold
vector 33 scenario.client2.tcp.conn-2 rcvAck:vector ETV
attr interpolationmode sample-hold
vector 34 scenario.client2.tcp.conn-26 rcvAdv:vector ETV
attr interpolationmode sample-hold
vector 35 scenario.client2.tcp.conn-26 sndWnd:vector ETV
attr interpolationmode sample-hold
vector 36 scenario.client2.tcp.conn-26 tcpRcvQueueBytes:vector ETV
attr interpolationmode sample-hold
vector 37 scenario.client2.tcp.conn-26 rcvWnd:vector ETV
attr interpolationmode sample-hold
vector 38 scenario.client2.tcp.conn-26 sndAck:vector ETV
attr interpolationmode sample-hold
vector 39 scenario.client2.ppp[0].ppp rcvdPkFromHl:vector(packetBytes) ETV
attr interpolationmode none
attr source packetReceivedFromUpper
attr title "packets received from higher layer, vector(packetBytes)"
vector 40 scenario.client2.ppp[0].ppp.queue packetPushed:vector(packetBytes) ETV
attr interpolationmode none
attr title "packet pushed, vector(packetBytes)"
vector 41 scenario.client2.ppp[0].ppp.queue queueLength:vector ETV
attr interpolationmode sample-hold
attr source "count(packetPushed) - count(packetPopped) - count(packetRemoved) - count(packetDropped)"
attr title "queue length, vector"
vector 42 scenario.client2.ppp[0].ppp.queue packetPopped:vector(packetBytes) ETV
attr interpolationmode none
attr title "packet popped, vector(packetBytes)"
vector 43 scenario.client2.ppp[0].ppp.queue queueingTime:vector ETV
attr interpolationmode none
attr source queueingTime(packetPopped)
attr title "queueing times, vector"
attr unit s
vector 44 scenario.client2.ppp[0].ppp txPk:vector(packetBytes) ETV
attr interpolationmode none
attr source packetSentToLower
attr title "packets transmitted, vector(packetBytes)"
vector 45 scenario.client0.ppp[1].ppp rxPkOk:vector(packetBytes) ETV
attr interpolationmode none
attr source rxPkOk
attr title "packets received OK, vector(packetBytes)"
vector 46 scenario.client0.ppp[1].ppp passedUpPk:vector(packetBytes) ETV
attr interpolationmode none
attr source packetSentToUpper
attr title "packets passed to higher layer, vector(packetBytes)"
vector 47 scenario.client0.tcp.conn-25 rcvSeq:vector ETV
attr interpolationmode sample-hold
vector 48 scenario.client0.tcp.conn-25 rcvAck:vector ETV
attr interpolationmode sample-hold
vector 49 scenario.client0.tcp.conn-25 sndWnd:vector ETV
attr interpolationmode sample-hold
vector 50 scenario.client0.tcp.conn-25 unacked:vector ETV
attr interpolationmode sample-hold
vector 51 scenario.client2.tcp.conn-26 rcvSeq:vector ETV
attr interpolationmode sample-hold
vector 52 scenario.client2.tcp.conn-26 rcvAck:vector ETV
attr interpolationmode sample-hold
vector 53 scenario.client2.tcp.conn-26 unacked:vector ETV
attr interpolationmode sample-hold
vector 54 scenario.client2.tcp.conn-26 cwnd:vector ETV
attr interpolationmode sample-hold
vector 55 scenario.client2.tcp.conn-26 ssthresh:vector ETV
attr interpolationmode sample-hold
vector 56 scenario.client2.tcp.conn-26 dupAcks:vector ETV
attr interpolationmode sample-hold
vector 57 scenario.client0.tcp.conn-25 rtt:vector ETV
attr interpolationmode sample-hold
vector 58 scenario.client0.tcp.conn-25 srtt:vector ETV
attr interpolationmode sample-hold
vector 59 scenario.client0.tcp.conn-25 rttvar:vector ETV
attr interpolationmode sample-hold
vector 60 scenario.client0.tcp.conn-25 rto:vector ETV
attr interpolationmode sample-hold
vector 61 scenario.client0.tcp.conn-25 cwnd:vector ETV
attr interpolationmode sample-hold
vector 62 scenario.client0.tcp.conn-25 ssthresh:vector ETV
attr interpolationmode sample-hold
vector 63 scenario.client0.tcp.conn-25 dupAcks:vector ETV
attr interpolationmode sample-hold
vector 64 scenario.client0.tcp.conn-27 tcpRcvQueueBytes:vector ETV
attr interpolationmode sample-hold
vector 65 scenario.client0.tcp.conn-27 rcvAdv:vector ETV
attr interpolationmode sample-hold
vector 66 scenario.client0.tcp.conn-27 rcvWnd:vector ETV
attr interpolationmode sample-hold
vector 67 scenario.client0.tcp.conn-27 sndAck:vector ETV
attr interpolationmode sample-hold
vector 68 scenario.client0.ppp[0].ppp rcvdPkFromHl:vector(packetBytes) ETV
attr interpolationmode none
attr source packetReceivedFromUpper
attr title "packets received from higher layer, vector(packetBytes)"
vector 69 scenario.client0.ppp[0].ppp.queue packetPushed:vector(packetBytes) ETV
attr interpolationmode none
attr title "packet pushed, vector(packetBytes)"
vector 70 scenario.client0.ppp[0].ppp.queue queueLength:vector ETV
attr interpolationmode sample-hold
attr source "count(packetPushed) - count(packetPopped) - count(packetRemoved) - count(packetDropped)"
attr title "queue length, vector"
vector 71 scenario.client0.ppp[0].ppp.queue packetPopped:vector(packetBytes) ETV
attr interpolationmode none
attr title "packet popped, vector(packetBytes)"
vector 72 scenario.client0.ppp[0].ppp.queue queueingTime:vector ETV
attr interpolationmode none
attr source queueingTime(packetPopped)
attr title "queueing times, vector"
attr unit s
vector 73 scenario.client0.ppp[0].ppp txPk:vector(packetBytes) ETV
attr interpolationmode none
attr source packetSentToLower
attr title "packets transmitted, vector(packetBytes)"
vector 74 scenario.client1.ppp[0].ppp rxPkOk:vector(packetBytes) ETV
attr interpolationmode none
attr source rxPkOk
attr title "packets received OK, vector(packetBytes)"
vector 75 scenario.client1.ppp[0].ppp passedUpPk:vector(packetBytes) ETV
attr interpolationmode none
attr source packetSentToUpper
attr title "packets passed to higher layer, vector(packetBytes)"
vector 76 scenario.client1.tcp.conn-1 rcvSeq:vector ETV
attr interpolationmode sample-hold
vector 77 scenario.client1.tcp.conn-1 rcvAck:vector ETV
attr interpolationmode sample-hold
vector 78 scenario.client1.tcp.conn-28 rcvAdv:vector ETV
attr interpolationmode sample-hold
vector 79 scenario.client1.tcp.conn-28 sndWnd:vector ETV
attr interpolationmode sample-hold
vector 80 scenario.client1.tcp.conn-28 tcpRcvQueueBytes:vector ETV
attr interpolationmode sample-hold
vector 81 scenario.client1.tcp.conn-28 rcvWnd:vector ETV
attr interpolationmode sample-hold
vector 82 scenario.client1.tcp.conn-28 sndAck:vector ETV
attr interpolationmode sample-hold
vector 83 scenario.client1.ppp[0].ppp rcvdPkFromHl:vector(packetBytes) ETV
attr interpolationmode none
attr source packetReceivedFromUpper
attr title "packets received from higher layer, vector(packetBytes)"
vector 84 scenario.client1.ppp[0].ppp.queue packetPushed:vector(packetBytes) ETV
attr interpolationmode none
attr title "packet pushed, vector(packetBytes)"
vector 85 scenario.client1.ppp[0].ppp.queue queueLength:vector ETV
attr interpolationmode sample-hold
attr source "count(packetPushed) - count(packetPopped) - count(packetRemoved) - count(packetDropped)"
attr title "queue length, vector"
vector 86 scenario.client1.ppp[0].ppp.queue packetPopped:vector(packetBytes) ETV
attr interpolationmode none
attr title "packet popped, vector(packetBytes)"
vector 87 scenario.client1.ppp[0].ppp.queue queueingTime:vector ETV
attr interpolationmode none
attr source queueingTime(packetPopped)
attr title "queueing times, vector"
attr unit s
vector 88 scenario.client1.ppp[0].ppp txPk:vector(packetBytes) ETV
attr interpolationmode none
attr source packetSentToLower
attr title "packets transmitted, vector(packetBytes)"
vector 89 scenario.client0.ppp[0].ppp rxPkOk:vector(packetBytes) ETV
attr interpolationmode none
attr source rxPkOk
attr title "packets received OK, vector(packetBytes)"
vector 90 scenario.client0.ppp[0].ppp passedUpPk:vector(packetBytes) ETV
attr interpolationmode none
attr source packetSentToUpper
attr title "packets passed to higher layer, vector(packetBytes)"
vector 91 scenario.client0.tcp.conn-27 rcvSeq:vector ETV
attr interpolationmode sample-hold
vector 92 scenario.client0.tcp.conn-27 rcvAck:vector ETV
attr interpolationmode sample-hold
vector 93 scenario.client0.tcp.conn-27 sndWnd:vector ETV
attr interpolationmode sample-hold
vector 94 scenario.client0.tcp.conn-27 unacked:vector ETV
attr interpolationmode sample-hold
vector 95 scenario.client1.tcp.conn-28 rcvSeq:vector ETV
attr interpolationmode sample-hold
vector 96 scenario.client1.tcp.conn-28 rcvAck:vector ETV
attr interpolationmode sample-hold
vector 97 scenario.client1.tcp.conn-28 unacked:vector ETV
attr interpolationmode sample-hold
vector 98 scenario.client1.tcp.conn-28 cwnd:vector ETV
attr interpolationmode sample-hold
vector 99 scenario.client1.tcp.conn-28 ssthresh:vector ETV
attr interpolationmode sample-hold
vector 100 scenario.client1.tcp.conn-28 dupAcks:vector ETV
attr interpolationmode sample-hold
vector 101 scenario.client0.tcp.conn-27 rtt:vector ETV
attr interpolationmode sample-hold
vector 102 scenario.client0.tcp.conn-27 srtt:vector ETV
attr interpolationmode sample-hold
vector 103 scenario.client0.tcp.conn-27 rttvar:vector ETV
attr interpolationmode sample-hold
vector 104 scenario.client0.tcp.conn-27 rto:vector ETV
attr interpolationmode sample-hold
vector 105 scenario.client0.tcp.conn-27 cwnd:vector ETV
attr interpolationmode sample-hold
vector 106 scenario.client0.tcp.conn-27 ssthresh:vector ETV
attr interpolationmode sample-hold
vector 107 scenario.client0.tcp.conn-27 dupAcks:vector ETV
attr interpolationmode sample-hold
vector 108 scenario.client2.tcp.conn-29 tcpRcvQueueBytes:vector ETV
attr interpolationmode sample-hold
vector 109 scenario.client2.tcp.conn-29 rcvAdv:vector ETV
attr interpolationmode sample-hold
vector 110 scenario.client2.tcp.conn-29 rcvWnd:vector ETV
attr interpolationmode sample-hold
vector 111 scenario.client2.tcp.conn-29 sndAck:vector ETV
attr interpolationmode sample-hold
vector 112 scenario.client0.tcp.conn-0 rcvSeq:vector ETV
attr interpolationmode sample-hold
vector 113 scenario.client0.tcp.conn-0 rcvAck:vector ETV
attr interpolationmode sample-hold
vector 114 scenario.client0.tcp.conn-30 rcvAdv:vector ETV
attr interpolationmode sample-hold
vector 115 scenario.client0.tcp.conn-30 sndWnd:vector ETV
attr interpolationmode sample-hold
vector 116 scenario.client0.tcp.conn-30 tcpRcvQueueBytes:vector ETV
attr interpolationmode sample-hold
vector 117 scenario.client0.tcp.conn-30 rcvWnd:vector ETV
attr interpolationmode sample-hold
vector 118 scenario.client0.tcp.conn-30 sndAck:vector ETV
attr interpolationmode sample-hold
vector 119 scenario.client2.tcp.conn-29 rcvSeq:vector ETV
attr interpolationmode sample-hold
vector 120 scenario.client2.tcp.conn-29 rcvAck:vector ETV
attr interpolationmode sample-hold
vector 121 scenario.client2.tcp.conn-29 sndWnd:vector ETV
attr interpolationmode sample-hold
vector 122 scenario.client2.tcp.conn-29 unacked:vector ETV
attr interpolationmode sample-hold
vector 123 scenario.client0.tcp.conn-30 rcvSeq:vector ETV
attr interpolationmode sample-hold
vector 124 scenario.client0.tcp.conn-30 rcvAck:vector ETV
attr interpolationmode sample-hold
vector 125 scenario.client0.tcp.conn-30 unacked:vector ETV
attr interpolationmode sample-hold
vector 126 scenario.client0.tcp.conn-30 cwnd:vector ETV
attr interpolationmode sample-hold
vector 127 scenario.client0.tcp.conn-30 ssthresh:vector ETV
attr interpolationmode sample-hold
vector 128 scenario.client0.tcp.conn-30 dupAcks:vector ETV
attr interpolationmode sample-hold
vector 129 scenario.client2.tcp.conn-29 rtt:vector ETV
attr interpolationmode sample-hold
vector 130 scenario.client2.tcp.conn-29 srtt:vector ETV
attr interpolationmode sample-hold
vector 131 scenario.client2.tcp.conn-29 rttvar:vector ETV
attr interpolationmode sample-hold
vector 132 scenario.client2.tcp.conn-29 rto:vector ETV
attr interpolationmode sample-hold
vector 133 scenario.client2.tcp.conn-29 cwnd:vector ETV
attr interpolationmode sample-hold
vector 134 scenario.client2.tcp.conn-29 ssthresh:vector ETV
attr interpolationmode sample-hold
vector 135 scenario.client2.tcp.conn-29 dupAcks:vector ETV
attr interpolationmode sample-hold
vector 136 scenario.client1.tcp.conn-31 tcpRcvQueueBytes:vector ETV
attr interpolationmode sample-hold
vector 137 scenario.client1.tcp.conn-31 rcvAdv:vector ETV
attr interpolationmode sample-hold
vector 138 scenario.client1.tcp.conn-31 rcvWnd:vector ETV
attr interpolationmode sample-hold
vector 139 scenario.client1.tcp.conn-31 sndAck:vector ETV
attr interpolationmode sample-hold
vector 140 scenario.client0.tcp.conn-32 rcvAdv:vector ETV
attr interpolationmode sample-hold
vector 141 scenario.client0.tcp.conn-32 sndWnd:vector ETV
attr interpolationmode sample-hold
vector 142 scenario.client0.tcp.conn-32 tcpRcvQueueBytes:vector ETV
attr interpolationmode sample-hold
vector 143 scenario.client0.tcp.conn-32 rcvWnd:vector ETV
attr interpolationmode sample-hold
vector 144 scenario.client0.tcp.conn-32 sndAck:vector ETV
attr interpolationmode sample-hold
vector 145 scenario.client1.tcp.conn-31 rcvSeq:vector ETV
attr interpolationmode sample-hold
vector 146 scenario.client1.tcp.conn-31 rcvAck:vector ETV
attr interpolationmode sample-hold
vector 147 scenario.client1.tcp.conn-31 sndWnd:vector ETV
attr interpolationmode sample-hold
vector 148 scenario.client1.tcp.conn-31 unacked:vector ETV
attr interpolationmode sample-hold
vector 149 scenario.client0.tcp.conn-32 rcvSeq:vector ETV
attr interpolationmode sample-hold
vector 150 scenario.client0.tcp.conn-32 rcvAck:vector ETV
attr interpolationmode sample-hold
vector 151 scenario.client0.tcp.conn-32 unacked:vector ETV
attr interpolationmode sample-hold
vector 152 scenario.client0.tcp.conn-32 cwnd:vector ETV
attr interpolationmode sample-hold
vector 153 scenario.client0.tcp.conn-32 ssthresh:vector ETV
attr interpolationmode sample-hold
vector 154 scenario.client0.tcp.conn-32 dupAcks:vector ETV
attr interpolationmode sample-hold
vector 155 scenario.client1.tcp.conn-31 rtt:vector ETV
attr interpolationmode sample-hold
vector 156 scenario.client1.tcp.conn-31 srtt:vector ETV
attr interpolationmode sample-hold
vector 157 scenario.client1.tcp.conn-31 rttvar:vector ETV
attr interpolationmode sample-hold
vector 158 scenario.client1.tcp.conn-31 rto:vector ETV
attr interpolationmode sample-hold
vector 159 scenario.client1.tcp.conn-31 cwnd:vector ETV
attr interpolationmode sample-hold
vector 160 scenario.client1.tcp.conn-31 ssthresh:vector ETV
attr interpolationmode sample-hold
vector 161 scenario.client1.tcp.conn-31 dupAcks:vector ETV
attr interpolationmode sample-hold
vector 162 scenario.client1.tcp.conn-33 tcpRcvQueueBytes:vector ETV
attr interpolationmode sample-hold
vector 163 scenario.client1.tcp.conn-33 rcvAdv:vector ETV
attr interpolationmode sample-hold
vector 164 scenario.client1.tcp.conn-33 rcvWnd:vector ETV
attr interpolationmode sample-hold
vector 165 scenario.client1.tcp.conn-33 sndAck:vector ETV
attr interpolationmode sample-hold
vector 166 scenario.client1.ppp[1].ppp rcvdPkFromHl:vector(packetBytes) ETV
attr interpolationmode none
attr source packetReceivedFromUpper
attr title "packets received from higher layer, vector(packetBytes)"
vector 167 scenario.client1.ppp[1].ppp.queue packetPushed:vector(packetBytes) ETV
attr interpolationmode none
attr title "packet pushed, vector(packetBytes)"
vector 168 scenario.client1.ppp[1].ppp.queue queueLength:vector ETV
attr interpolationmode sample-hold
attr source "count(packetPushed) - count(packetPopped) - count(packetRemoved) - count(packetDropped)"
attr title "queue length, vector"
vector 169 scenario.client1.ppp[1].ppp.queue packetPopped:vector(packetBytes) ETV
attr interpolationmode none
attr title "packet popped, vector(packetBytes)"
vector 170 scenario.client1.ppp[1].ppp.queue queueingTime:vector ETV
attr interpolationmode none
attr source queueingTime(packetPopped)
attr title "queueing times, vector"
attr unit s
vector 171 scenario.client1.ppp[1].ppp txPk:vector(packetBytes) ETV
attr interpolationmode none
attr source packetSentToLower
attr title "packets transmitted, vector(packetBytes)"
vector 172 scenario.client2.ppp[1].ppp rxPkOk:vector(packetBytes) ETV
attr interpolationmode none
attr source rxPkOk
attr title "packets received OK, vector(packetBytes)"
vector 173 scenario.client2.ppp[1].ppp passedUpPk:vector(packetBytes) ETV
attr interpolationmode none
attr source packetSentToUpper
attr title "packets passed to higher layer, vector(packetBytes)"
vector 174 scenario.client2.tcp.conn-34 rcvAdv:vector ETV
attr interpolationmode sample-hold
vector 175 scenario.client2.tcp.conn-34 sndWnd:vector ETV
attr interpolationmode sample-hold
vector 176 scenario.client2.tcp.conn-34 tcpRcvQueueBytes:vector ETV
attr interpolationmode sample-hold
vector 177 scenario.client2.tcp.conn-34 rcvWnd:vector ETV
attr interpolationmode sample-hold
vector 178 scenario.client2.tcp.conn-34 sndAck:vector ETV
attr interpolationmode sample-hold
vector 179 scenario.client2.ppp[1].ppp rcvdPkFromHl:vector(packetBytes) ETV
attr interpolationmode none
attr source packetReceivedFromUpper
attr title "packets received from higher layer, vector(packetBytes)"
vector 180 scenario.client2.ppp[1].ppp.queue packetPushed:vector(packetBytes) ETV
attr interpolationmode none
attr title "packet pushed, vector(packetBytes)"
vector 181 scenario.client2.ppp[1].ppp.queue queueLength:vector ETV
attr interpolationmode sample-hold
attr source "count(packetPushed) - count(packetPopped) - count(packetRemoved) - count(packetDropped)"
attr title "queue length, vector"
vector 182 scenario.client2.ppp[1].ppp.queue packetPopped:vector(packetBytes) ETV
attr interpolationmode none
attr title "packet popped, vector(packetBytes)"
vector 183 scenario.client2.ppp[1].ppp.queue queueingTime:vector ETV
attr interpolationmode none
attr source queueingTime(packetPopped)
attr title "queueing times, vector"
attr unit s
vector 184 scenario.client2.ppp[1].ppp txPk:vector(packetBytes) ETV
attr interpolationmode none
attr source packetSentToLower
attr title "packets transmitted, vector(packetBytes)"
vector 185 scenario.client1.ppp[1].ppp rxPkOk:vector(packetBytes) ETV
attr interpolationmode none
attr source rxPkOk
attr title "packets received OK, vector(packetBytes)"
vector 186 scenario.client1.ppp[1].ppp passedUpPk:vector(packetBytes) ETV
attr interpolationmode none
attr source packetSentToUpper
attr title "packets passed to higher layer, vector(packetBytes)"
vector 187 scenario.client1.tcp.conn-33 rcvSeq:vector ETV
attr interpolationmode sample-hold
vector 188 scenario.client1.tcp.conn-33 rcvAck:vector ETV
attr interpolationmode sample-hold
vector 189 scenario.client1.tcp.conn-33 sndWnd:vector ETV
attr interpolationmode sample-hold
vector 190 scenario.client1.tcp.conn-33 unacked:vector ETV
attr interpolationmode sample-hold
vector 191 scenario.client2.tcp.conn-34 rcvSeq:vector ETV
attr interpolationmode sample-hold
vector 192 scenario.client2.tcp.conn-34 rcvAck:vector ETV
attr interpolationmode sample-hold
vector 193 scenario.client2.tcp.conn-34 unacked:vector ETV
attr interpolationmode sample-hold
vector 194 scenario.client2.tcp.conn-34 cwnd:vector ETV
attr interpolationmode sample-hold
vector 195 scenario.client2.tcp.conn-34 ssthresh:vector ETV
attr interpolationmode sample-hold
vector 196 scenario.client2.tcp.conn-34 dupAcks:vector ETV
attr interpolationmode sample-hold
vector 197 scenario.client1.tcp.conn-33 rtt:vector ETV
attr interpolationmode sample-hold
vector 198 scenario.client1.tcp.conn-33 srtt:vector ETV
attr interpolationmode sample-hold
vector 199 scenario.client1.tcp.conn-33 rttvar:vector ETV
attr interpolationmode sample-hold
vector 200 scenario.client1.tcp.conn-33 rto:vector ETV
attr interpolationmode sample-hold
vector 201 scenario.client1.tcp.conn-33 cwnd:vector ETV
attr interpolationmode sample-hold
vector 202 scenario.client1.tcp.conn-33 ssthresh:vector ETV
attr interpolationmode sample-hold
vector 203 scenario.client1.tcp.conn-33 dupAcks:vector ETV
attr interpolationmode sample-hold
vector 204 scenario.client2.tcp.conn-35 tcpRcvQueueBytes:vector ETV
attr interpolationmode sample-hold
vector 205 scenario.client2.tcp.conn-35 rcvAdv:vector ETV
attr interpolationmode sample-hold
vector 206 scenario.client2.tcp.conn-35 rcvWnd:vector ETV
attr interpolationmode sample-hold
vector 207 scenario.client2.tcp.conn-35 sndAck:vector ETV
attr interpolationmode sample-hold
vector 208 scenario.client1.tcp.conn-36 rcvAdv:vector ETV
attr interpolationmode sample-hold
vector 209 scenario.client1.tcp.conn-36 sndWnd:vector ETV
attr interpolationmode sample-hold
vector 210 scenario.client1.tcp.conn-36 tcpRcvQueueBytes:vector ETV
attr interpolationmode sample-hold
vector 211 scenario.client1.tcp.conn-36 rcvWnd:vector ETV
attr interpolationmode sample-hold
vector 212 scenario.client1.tcp.conn-36 sndAck:vector ETV
attr interpolationmode sample-hold
vector 213 scenario.client2.tcp.conn-35 rcvSeq:vector ETV
attr interpolationmode sample-hold
vector 214 scenario.client2.tcp.conn-35 rcvAck:vector ETV
attr interpolationmode sample-hold
vector 215 scenario.client2.tcp.conn-35 sndWnd:vector ETV
attr interpolationmode sample-hold
vector 216 scenario.client2.tcp.conn-35 unacked:vector ETV
attr interpolationmode sample-hold
vector 217 scenario.client1.tcp.conn-36 rcvSeq:vector ETV
attr interpolationmode sample-hold
vector 218 scenario.client1.tcp.conn-36 rcvAck:vector ETV
attr interpolationmode sample-hold
vector 219 scenario.client1.tcp.conn-36 unacked:vector ETV
attr interpolationmode sample-hold
vector 220 scenario.client1.tcp.conn-36 cwnd:vector ETV
attr interpolationmode sample-hold
vector 221 scenario.client1.tcp.conn-36 ssthresh:vector ETV
attr interpolationmode sample-hold
vector 222 scenario.client1.tcp.conn-36 dupAcks:vector ETV
attr interpolationmode sample-hold
vector 223 scenario.client2.tcp.conn-35 rtt:vector ETV
attr interpolationmode sample-hold
vector 224 scenario.client2.tcp.conn-35 srtt:vector ETV
attr interpolationmode sample-hold
vector 225 scenario.client2.tcp.conn-35 rttvar:vector ETV
attr interpolationmode sample-hold
vector 226 scenario.client2.tcp.conn-35 rto:vector ETV
attr interpolationmode sample-hold
vector 227 scenario.client2.tcp.conn-35 cwnd:vector ETV
attr interpolationmode sample-hold
vector 228 scenario.client2.tcp.conn-35 ssthresh:vector ETV
attr interpolationmode sample-hold
vector 229 scenario.client2.tcp.conn-35 dupAcks:vector ETV
attr interpolationmode sample-hold
vector 230 scenario.client2.tcp.conn-37 tcpRcvQueueBytes:vector ETV
attr interpolationmode sample-hold
vector 231 scenario.client2.tcp.conn-37 rcvAdv:vector ETV
attr interpolationmode sample-hold
vector 232 scenario.client2.tcp.conn-37 rcvWnd:vector ETV
attr interpolationmode sample-hold
vector 233 scenario.client2.tcp.conn-37 sndAck:vector ETV
attr interpolationmode sample-hold
vector 234 scenario.client2.tcp.conn-38 tcpRcvQueueBytes:vector ETV
attr interpolationmode sample-hold
vector 235 scenario.client2.tcp.conn-38 rcvAdv:vector ETV
attr interpolationmode sample-hold
vector 236 scenario.client2.tcp.conn-38 rcvWnd:vector ETV
attr interpolationmode sample-hold
vector 237 scenario.client2.tcp.conn-38 sndAck:vector ETV
attr interpolationmode sample-hold
vector 238 scenario.client2.ppp[2].ppp rcvdPkFromHl:vector(packetBytes) ETV
attr interpolationmode none
attr source packetReceivedFromUpper
attr title "packets received from higher layer, vector(packetBytes)"
vector 239 scenario.client2.ppp[2].ppp.queue packetPushed:vector(packetBytes) ETV
attr interpolationmode none
attr title "packet pushed, vector(packetBytes)"
vector 240 scenario.client2.ppp[2].ppp.queue queueLength:vector ETV
attr interpolationmode sample-hold
attr source "count(packetPushed) - count(packetPopped) - count(packetRemoved) - count(packetDropped)"
attr title "queue length, vector"
vector 241 scenario.client2.ppp[2].ppp.queue packetPopped:vector(packetBytes) ETV
attr interpolationmode none
attr title "packet popped, vector(packetBytes)"
vector 242 scenario.client2.ppp[2].ppp.queue queueingTime:vector ETV
attr interpolationmode none
attr source queueingTime(packetPopped)
attr title "queueing times, vector"
attr unit s
vector 243 scenario.client2.ppp[2].ppp txPk:vector(packetBytes) ETV
attr interpolationmode none
attr source packetSentToLower
attr title "packets transmitted, vector(packetBytes)"
vector 244 scenario.client2.ppp[3].ppp rcvdPkFromHl:vector(packetBytes) ETV
attr interpolationmode none
attr source packetReceivedFromUpper
attr title "packets received from higher layer, vector(packetBytes)"
vector 245 scenario.client2.ppp[3].ppp.queue packetPushed:vector(packetBytes) ETV
attr interpolationmode none
attr title "packet pushed, vector(packetBytes)"
vector 246 scenario.client2.ppp[3].ppp.queue queueLength:vector ETV
attr interpolationmode sample-hold
attr source "count(packetPushed) - count(packetPopped) - count(packetRemoved) - count(packetDropped)"
attr title "queue length, vector"
vector 247 scenario.client2.ppp[3].ppp.queue packetPopped:vector(packetBytes) ETV
attr interpolationmode none
attr title "packet popped, vector(packetBytes)"
vector 248 scenario.client2.ppp[3].ppp.queue queueingTime:vector ETV
attr interpolationmode none
attr source queueingTime(packetPopped)
attr title "queueing times, vector"
attr unit s
vector 249 scenario.client2.ppp[3].ppp txPk:vector(packetBytes) ETV
attr interpolationmode none
attr source packetSentToLower
attr title "packets transmitted, vector(packetBytes)"
vector 250 scenario.client1.tcp.conn-39 tcpRcvQueueBytes:vector ETV
attr interpolationmode sample-hold
vector 251 scenario.client1.tcp.conn-39 rcvAdv:vector ETV
attr interpolationmode sample-hold
vector 252 scenario.client1.tcp.conn-39 rcvWnd:vector ETV
attr interpolationmode sample-hold
vector 253 scenario.client1.tcp.conn-39 sndAck:vector ETV
attr interpolationmode sample-hold
vector 254 scenario.client1.tcp.conn-40 tcpRcvQueueBytes:vector ETV
attr interpolationmode sample-hold
vector 255 scenario.client1.tcp.conn-40 rcvAdv:vector ETV
attr interpolationmode sample-hold
vector 256 scenario.client1.tcp.conn-40 rcvWnd:vector ETV
attr interpolationmode sample-hold
vector 257 scenario.client1.tcp.conn-40 sndAck:vector ETV
attr interpolationmode sample-hold
vector 258 scenario.client1.ppp[2].ppp rcvdPkFromHl:vector(packetBytes) ETV
attr interpolationmode none
attr source packetReceivedFromUpper
attr title "packets received from higher layer, vector(packetBytes)"
vector 259 scenario.client1.ppp[2].ppp.queue packetPushed:vector(packetBytes) ETV
attr interpolationmode none
attr title "packet pushed, vector(packetBytes)"
vector 260 scenario.client1.ppp[2].ppp.queue queueLength:vector ETV
attr interpolationmode sample-hold
attr source "count(packetPushed) - count(packetPopped) - count(packetRemoved) - count(packetDropped)"
attr title "queue length, vector"
vector 261 scenario.client1.ppp[2].ppp.queue packetPopped:vector(packetBytes) ETV
attr interpolationmode none
attr title "packet popped, vector(packetBytes)"
vector 262 scenario.client1.ppp[2].ppp.queue queueingTime:vector ETV
attr interpolationmode none
attr source queueingTime(packetPopped)
attr title "queueing times, vector"
attr unit s
vector 263 scenario.client1.ppp[2].ppp txPk:vector(packetBytes) ETV
attr interpolationmode none
attr source packetSentToLower
attr title "packets transmitted, vector(packetBytes)"
vector 264 scenario.client1.ppp[3].ppp rcvdPkFromHl:vector(packetBytes) ETV
attr interpolationmode none
attr source packetReceivedFromUpper
attr title "packets received from higher layer, vector(packetBytes)"
vector 265 scenario.client1.ppp[3].ppp.queue packetPushed:vector(packetBytes) ETV
attr interpolationmode none
attr title "packet pushed, vector(packetBytes)"
vector 266 scenario.client1.ppp[3].ppp.queue queueLength:vector ETV
attr interpolationmode sample-hold
attr source "count(packetPushed) - count(packetPopped) - count(packetRemoved) - count(packetDropped)"
attr title "queue length, vector"
vector 267 scenario.client1.ppp[3].ppp.queue packetPopped:vector(packetBytes) ETV
attr interpolationmode none
attr title "packet popped, vector(packetBytes)"
vector 268 scenario.client1.ppp[3].ppp.queue queueingTime:vector ETV
attr interpolationmode none
attr source queueingTime(packetPopped)
attr title "queueing times, vector"
attr unit s
vector 269 scenario.client1.ppp[3].ppp txPk:vector(packetBytes) ETV
attr interpolationmode none
attr source packetSentToLower
attr title "packets transmitted, vector(packetBytes)"
vector 270 scenario.client3.ppp[2].ppp rxPkOk:vector(packetBytes) ETV
attr interpolationmode none
attr source rxPkOk
attr title "packets received OK, vector(packetBytes)"
vector 271 scenario.client3.ppp[2].ppp passedUpPk:vector(packetBytes) ETV
attr interpolationmode none
attr source packetSentToUpper
attr title "packets passed to higher layer, vector(packetBytes)"
vector 272 scenario.client4.ppp[2].ppp rxPkOk:vector(packetBytes) ETV
attr interpolationmode none
attr source rxPkOk
attr title "packets received OK, vector(packetBytes)"
vector 273 scenario.client4.ppp[2].ppp passedUpPk:vector(packetBytes) ETV
attr interpolationmode none
attr source packetSentToUpper
attr title "packets passed to higher layer, vector(packetBytes)"
vector 274 scenario.client3.tcp.conn-3 rcvSeq:vector ETV
attr interpolationmode sample-hold
vector 275 scenario.client3.tcp.conn-3 rcvAck:vector ETV
attr interpolationmode sample-hold
vector 276 scenario.client3.tcp.conn-41 rcvAdv:vector ETV
attr interpolationmode sample-hold
vector 277 scenario.client3.tcp.conn-41 sndWnd:vector ETV
attr interpolationmode sample-hold
vector 278 scenario.client3.tcp.conn-41 tcpRcvQueueBytes:vector ETV
attr interpolationmode sample-hold
vector 279 scenario.client3.tcp.conn-41 rcvWnd:vector ETV
attr interpolationmode sample-hold
vector 280 scenario.client3.tcp.conn-41 sndAck:vector ETV
attr interpolationmode sample-hold
vector 281 scenario.client4.tcp.conn-4 rcvSeq:vector ETV
attr interpolationmode sample-hold
vector 282 scenario.client4.tcp.conn-4 rcvAck:vector ETV
attr interpolationmode sample-hold
vector 283 scenario.client4.tcp.conn-42 rcvAdv:vector ETV
attr interpolationmode sample-hold
vector 284 scenario.client4.tcp.conn-42 sndWnd:vector ETV
attr interpolationmode sample-hold
vector 285 scenario.client4.tcp.conn-42 tcpRcvQueueBytes:vector ETV
attr interpolationmode sample-hold
vector 286 scenario.client4.tcp.conn-42 rcvWnd:vector ETV
attr interpolationmode sample-hold
vector 287 scenario.client4.tcp.conn-42 sndAck:vector ETV
attr interpolationmode sample-hold
vector 288 scenario.client3.ppp[2].ppp rcvdPkFromHl:vector(packetBytes) ETV
attr interpolationmode none
attr source packetReceivedFromUpper
attr title "packets received from higher layer, vector(packetBytes)"
vector 289 scenario.client3.ppp[2].ppp.queue packetPushed:vector(packetBytes) ETV
attr interpolationmode none
attr title "packet pushed, vector(packetBytes)"
vector 290 scenario.client3.ppp[2].ppp.queue queueLength:vector ETV
attr interpolationmode sample-hold
attr source "count(packetPushed) - count(packetPopped) - count(packetRemoved) - count(packetDropped)"
attr title "queue length, vector"
vector 291 scenario.client3.ppp[2].ppp.queue packetPopped:vector(packetBytes) ETV
attr interpolationmode none
attr title "packet popped, vector(packetBytes)"
vector 292 scenario.client3.ppp[2].ppp.queue queueingTime:vector ETV
attr interpolationmode none
attr source queueingTime(packetPopped)
attr title "queueing times, vector"
attr unit s
vector 293 scenario.client3.ppp[2].ppp txPk:vector(packetBytes) ETV
attr interpolationmode none
attr source packetSentToLower
attr title "packets transmitted, vector(packetBytes)"
vector 294 scenario.client4.ppp[2].ppp rcvdPkFromHl:vector(packetBytes) ETV
attr interpolationmode none
attr source packetReceivedFromUpper
attr title "packets received from higher layer, vector(packetBytes)"
vector 295 scenario.client4.ppp[2].ppp.queue packetPushed:vector(packetBytes) ETV
attr interpolationmode none
attr title "packet pushed, vector(packetBytes)"
vector 296 scenario.client4.ppp[2].ppp.queue queueLength:vector ETV
attr interpolationmode sample-hold
attr source "count(packetPushed) - count(packetPopped) - count(packetRemoved) - count(packetDropped)"
attr title "queue length, vector"
vector 297 scenario.client4.ppp[2].ppp.queue packetPopped:vector(packetBytes) ETV
attr interpolationmode none
attr title "packet popped, vector(packetBytes)"
vector 298 scenario.client4.ppp[2].ppp.queue queueingTime:vector ETV
attr interpolationmode none
attr source queueingTime(packetPopped)
attr title "queueing times, vector"
attr unit s
vector 299 scenario.client4.ppp[2].ppp txPk:vector(packetBytes) ETV
attr interpolationmode none
attr source packetSentToLower
attr title "packets transmitted, vector(packetBytes)"
vector 300 scenario.client3.ppp[1].ppp rxPkOk:vector(packetBytes) ETV
attr interpolationmode none
attr source rxPkOk
attr title "packets received OK, vector(packetBytes)"
vector 301 scenario.client3.ppp[1].ppp passedUpPk:vector(packetBytes) ETV
attr interpolationmode none
attr source packetSentToUpper
attr title "packets passed to higher layer, vector(packetBytes)"
vector 302 scenario.client4.ppp[1].ppp rxPkOk:vector(packetBytes) ETV
attr interpolationmode none
attr source rxPkOk
attr title "packets received OK, vector(packetBytes)"
vector 303 scenario.client4.ppp[1].ppp passedUpPk:vector(packetBytes) ETV
attr interpolationmode none
attr source packetSentToUpper
attr title "packets passed to higher layer, vector(packetBytes)"
vector 304 scenario.client3.tcp.conn-43 rcvAdv:vector ETV
attr interpolationmode sample-hold
vector 305 scenario.client3.tcp.conn-43 sndWnd:vector ETV
attr interpolationmode sample-hold
vector 306 scenario.client3.tcp.conn-43 tcpRcvQueueBytes:vector ETV
attr interpolationmode sample-hold
vector 307 scenario.client3.tcp.conn-43 rcvWnd:vector ETV
attr interpolationmode sample-hold
vector 308 scenario.client3.tcp.conn-43 sndAck:vector ETV
attr interpolationmode sample-hold
vector 309 scenario.client4.tcp.conn-44 rcvAdv:vector ETV
attr interpolationmode sample-hold
vector 310 scenario.client4.tcp.conn-44 sndWnd:vector ETV
attr interpolationmode sample-hold
vector 311 scenario.client4.tcp.conn-44 tcpRcvQueueBytes:vector ETV
attr interpolationmode sample-hold
vector 312 scenario.client4.tcp.conn-44 rcvWnd:vector ETV
attr interpolationmode sample-hold
vector 313 scenario.client4.tcp.conn-44 sndAck:vector ETV
attr interpolationmode sample-hold
vector 314 scenario.client3.ppp[1].ppp rcvdPkFromHl:vector(packetBytes) ETV
attr interpolationmode none
attr source packetReceivedFromUpper
attr title "packets received from higher layer, vector(packetBytes)"
vector 315 scenario.client3.ppp[1].ppp.queue packetPushed:vector(packetBytes) ETV
attr interpolationmode none
attr title "packet pushed, vector(packetBytes)"
vector 316 scenario.client3.ppp[1].ppp.queue queueLength:vector ETV
attr interpolationmode sample-hold
attr source "count(packetPushed) - count(packetPopped) - count(packetRemoved) - count(packetDropped)"
attr title "queue length, vector"
vector 317 scenario.client3.ppp[1].ppp.queue packetPopped:vector(packetBytes) ETV
attr interpolationmode none
attr title "packet popped, vector(packetBytes)"
vector 318 scenario.client3.ppp[1].ppp.queue queueingTime:vector ETV
attr interpolationmode none
attr source queueingTime(packetPopped)
attr title "queueing times, vector"
attr unit s
vector 319 scenario.client3.ppp[1].ppp txPk:vector(packetBytes) ETV
attr interpolationmode none
attr source packetSentToLower
attr title "packets transmitted, vector(packetBytes)"
vector 320 scenario.client4.ppp[1].ppp rcvdPkFromHl:vector(packetBytes) ETV
attr interpolationmode none
attr source packetReceivedFromUpper
attr title "packets received from higher layer, vector(packetBytes)"
vector 321 scenario.client4.ppp[1].ppp.queue packetPushed:vector(packetBytes) ETV
attr interpolationmode none
attr title "packet pushed, vector(packetBytes)"
vector 322 scenario.client4.ppp[1].ppp.queue queueLength:vector ETV
attr interpolationmode sample-hold
attr source "count(packetPushed) - count(packetPopped) - count(packetRemoved) - count(packetDropped)"
attr title "queue length, vector"
vector 323 scenario.client4.ppp[1].ppp.queue packetPopped:vector(packetBytes) ETV
attr interpolationmode none
attr title "packet popped, vector(packetBytes)"
vector 324 scenario.client4.ppp[1].ppp.queue queueingTime:vector ETV
attr interpolationmode none
attr source queueingTime(packetPopped)
attr title "queueing times, vector"
attr unit s
vector 325 scenario.client4.ppp[1].ppp txPk:vector(packetBytes) ETV
attr interpolationmode none
attr source packetSentToLower
attr title "packets transmitted, vector(packetBytes)"
vector 326 scenario.client2.ppp[2].ppp rxPkOk:vector(packetBytes) ETV
attr interpolationmode none
attr source rxPkOk
attr title "packets received OK, vector(packetBytes)"
vector 327 scenario.client2.ppp[2].ppp passedUpPk:vector(packetBytes) ETV
attr interpolationmode none
attr source packetSentToUpper
attr title "packets passed to higher layer, vector(packetBytes)"
vector 328 scenario.client2.ppp[3].ppp rxPkOk:vector(packetBytes) ETV
attr interpolationmode none
attr source rxPkOk
attr title "packets received OK, vector(packetBytes)"
vector 329 scenario.client2.ppp[3].ppp passedUpPk:vector(packetBytes) ETV
attr interpolationmode none
attr source packetSentToUpper
attr title "packets passed to higher layer, vector(packetBytes)"
vector 330 scenario.client2.tcp.conn-37 rcvSeq:vector ETV
attr interpolationmode sample-hold
vector 331 scenario.client2.tcp.conn-37 rcvAck:vector ETV
attr interpolationmode sample-hold
vector 332 scenario.client2.tcp.conn-37 sndWnd:vector ETV
attr interpolationmode sample-hold
vector 333 scenario.client2.tcp.conn-37 unacked:vector ETV
attr interpolationmode sample-hold
vector 334 scenario.client2.tcp.conn-38 rcvSeq:vector ETV
attr interpolationmode sample-hold
vector 335 scenario.client2.tcp.conn-38 rcvAck:vector ETV
attr interpolationmode sample-hold
vector 336 scenario.client2.tcp.conn-38 sndWnd:vector ETV
attr interpolationmode sample-hold
vector 337 scenario.client2.tcp.conn-38 unacked:vector ETV
attr interpolationmode sample-hold
vector 338 scenario.client1.ppp[2].ppp rxPkOk:vector(packetBytes) ETV
attr interpolationmode none
attr source rxPkOk
attr title "packets received OK, vector(packetBytes)"
vector 339 scenario.client1.ppp[2].ppp passedUpPk:vector(packetBytes) ETV
attr interpolationmode none
attr source packetSentToUpper
attr title "packets passed to higher layer, vector(packetBytes)"
vector 340 scenario.client1.ppp[3].ppp rxPkOk:vector(packetBytes) ETV
attr interpolationmode none
attr source rxPkOk
attr title "packets received OK, vector(packetBytes)"
vector 341 scenario.client1.ppp[3].ppp passedUpPk:vector(packetBytes) ETV
attr interpolationmode none
attr source packetSentToUpper
attr title "packets passed to higher layer, vector(packetBytes)"
vector 342 scenario.client1.tcp.conn-39 rcvSeq:vector ETV
attr interpolationmode sample-hold
vector 343 scenario.client1.tcp.conn-39 rcvAck:vector ETV
attr interpolationmode sample-hold
vector 344 scenario.client1.tcp.conn-39 sndWnd:vector ETV
attr interpolationmode sample-hold
vector 345 scenario.client1.tcp.conn-39 unacked:vector ETV
attr interpolationmode sample-hold
vector 346 scenario.client1.tcp.conn-40 rcvSeq:vector ETV
attr interpolationmode sample-hold
vector 347 scenario.client1.tcp.conn-40 rcvAck:vector ETV
attr interpolationmode sample-hold
vector 348 scenario.client1.tcp.conn-40 sndWnd:vector ETV
attr interpolationmode sample-hold
vector 349 scenario.client1.tcp.conn-40 unacked:vector ETV
attr interpolationmode sample-hold
vector 350 scenario.client3.tcp.conn-41 rcvSeq:vector ETV
attr interpolationmode sample-hold
vector 351 scenario.client3.tcp.conn-41 rcvAck:vector ETV
attr interpolationmode sample-hold
vector 352 scenario.client3.tcp.conn-41 unacked:vector ETV
attr interpolationmode sample-hold
vector 353 scenario.client3.tcp.conn-41 cwnd:vector ETV
attr interpolationmode sample-hold
vector 354 scenario.client3.tcp.conn-41 ssthresh:vector ETV
attr interpolationmode sample-hold
vector 355 scenario.client3.tcp.conn-41 dupAcks:vector ETV
attr interpolationmode sample-hold
vector 356 scenario.client4.tcp.conn-42 rcvSeq:vector ETV
attr interpolationmode sample-hold
vector 357 scenario.client4.tcp.conn-42 rcvAck:vector ETV
attr interpolationmode sample-hold
vector 358 scenario.client4.tcp.conn-42 unacked:vector ETV
attr interpolationmode sample-hold
vector 359 scenario.client4.tcp.conn-42 cwnd:vector ETV
attr interpolationmode sample-hold
vector 360 scenario.client4.tcp.conn-42 ssthresh:vector ETV
attr interpolationmode sample-hold
vector 361 scenario.client4.tcp.conn-42 dupAcks:vector ETV
attr interpolationmode sample-hold
vector 362 scenario.client3.tcp.conn-43 rcvSeq:vector ETV
attr interpolationmode sample-hold
vector 363 scenario.client3.tcp.conn-43 rcvAck:vector ETV
attr interpolationmode sample-hold
vector 364 scenario.client3.tcp.conn-43 unacked:vector ETV
attr interpolationmode sample-hold
vector 365 scenario.client3.tcp.conn-43 cwnd:vector ETV
attr interpolationmode sample-hold
vector 366 scenario.client3.tcp.conn-43 ssthresh:vector ETV
attr interpolationmode sample-hold
vector 367 scenario.client3.tcp.conn-43 dupAcks:vector ETV
attr interpolationmode sample-hold
vector 368 scenario.client4.tcp.conn-44 rcvSeq:vector ETV
attr interpolationmode sample-hold
vector 369 scenario.client4.tcp.conn-44 rcvAck:vector ETV
attr interpolationmode sample-hold
vector 370 scenario.client4.tcp.conn-44 unacked:vector ETV
attr interpolationmode sample-hold
vector 371 scenario.client4.tcp.conn-44 cwnd:vector ETV
attr interpolationmode sample-hold
vector 372 scenario.client4.tcp.conn-44 ssthresh:vector ETV
attr interpolationmode sample-hold
vector 373 scenario.client4.tcp.conn-44 dupAcks:vector ETV
attr interpolationmode sample-hold
vector 374 scenario.client2.tcp.conn-37 rtt:vector ETV
attr interpolationmode sample-hold
vector 375 scenario.client2.tcp.conn-37 srtt:vector ETV
attr interpolationmode sample-hold
vector 376 scenario.client2.tcp.conn-37 rttvar:vector ETV
attr interpolationmode sample-hold
vector 377 scenario.client2.tcp.conn-37 rto:vector ETV
attr interpolationmode sample-hold
vector 378 scenario.client2.tcp.conn-37 cwnd:vector ETV
attr interpolationmode sample-hold
vector 379 scenario.client2.tcp.conn-37 ssthresh:vector ETV
attr interpolationmode sample-hold
vector 380 scenario.client2.tcp.conn-37 dupAcks:vector ETV
attr interpolationmode sample-hold
vector 381 scenario.client2.tcp.conn-38 rtt:vector ETV
attr interpolationmode sample-hold
vector 382 scenario.client2.tcp.conn-38 srtt:vector ETV
attr interpolationmode sample-hold
vector 383 scenario.client2.tcp.conn-38 rttvar:vector ETV
attr interpolationmode sample-hold
vector 384 scenario.client2.tcp.conn-38 rto:vector ETV
attr interpolationmode sample-hold
vector 385 scenario.client2.tcp.conn-38 cwnd:vector ETV
attr interpolationmode sample-hold
vector 386 scenario.client2.tcp.conn-38 ssthresh:vector ETV
attr interpolationmode sample-hold
vector 387 scenario.client2.tcp.conn-38 dupAcks:vector ETV
attr interpolationmode sample-hold
vector 388 scenario.client1.tcp.conn-39 rtt:vector ETV
attr interpolationmode sample-hold
vector 389 scenario.client1.tcp.conn-39 srtt:vector ETV
attr interpolationmode sample-hold
vector 390 scenario.client1.tcp.conn-39 rttvar:vector ETV
attr interpolationmode sample-hold
vector 391 scenario.client1.tcp.conn-39 rto:vector ETV
attr interpolationmode sample-hold
vector 392 scenario.client1.tcp.conn-39 cwnd:vector ETV
attr interpolationmode sample-hold
vector 393 scenario.client1.tcp.conn-39 ssthresh:vector ETV
attr interpolationmode sample-hold
vector 394 scenario.client1.tcp.conn-39 dupAcks:vector ETV
attr interpolationmode sample-hold
vector 395 scenario.client1.tcp.conn-40 rtt:vector ETV
attr interpolationmode sample-hold
vector 396 scenario.client1.tcp.conn-40 srtt:vector ETV
attr interpolationmode sample-hold
vector 397 scenario.client1.tcp.conn-40 rttvar:vector ETV
attr interpolationmode sample-hold
vector 398 scenario.client1.tcp.conn-40 rto:vector ETV
attr interpolationmode sample-hold
vector 399 scenario.client1.tcp.conn-40 cwnd:vector ETV
attr interpolationmode sample-hold
vector 400 scenario.client1.tcp.conn-40 ssthresh:vector ETV
attr interpolationmode sample-hold
vector 401 scenario.client1.tcp.conn-40 dupAcks:vector ETV
attr interpolationmode sample-hold
0	0	0	0
0	43	0.778984954375	1
0	44	0.779392954375	0
0	56	0.780800954375	1
0	57	0.781184954375	0
0	113	1.218824528825	1
0	114	1.219232528825	0
0	128	1.220616528825	1
0	131	1.220992528825	0
0	244	3.953977050935	1
0	245	3.954353050935	0
0	252	4.100862637043	1
0	253	4.101246637043	0
0	267	4.122439223243	1
0	268	4.122823223243	0
0	304	4.170076542985	1
0	305	4.170452542985	0
0	327	4.628647666371	1
0	328	4.629031666371	0
0	359	4.630799666371	1
0	360	4.631175666371	0
0	452	4.847586416578	1
0	457	4.847962416578	0
0	457	4.847962416578	1
0	459	4.848354416578	0
0	637	5.033839843134	1
0	638	5.034215843134	0
0	720	5.593458788171	1
0	721	5.593842788171	0
1	0	0	0
1	11	0.158757286294	1
1	12	0.159165286294	0
1	24	0.160573286294	1
1	25	0.160957286294	0
1	81	1.00067822309	1
1	82	1.00108622309	0
1	96	1.00247022309	1
1	99	1.00284622309	0
1	182	3.500166815027	1
1	183	3.500542815027	0
1	222	3.861231300638	1
1	223	3.861615300638	0
1	289	4.142792995514	1
1	290	4.143168995514	0
1	312	4.1983082378	1
1	313	4.1986922378	0
1	400	4.753010592486	1
1	401	4.753394592486	0
1	432	4.755162592486	1
1	433	4.755538592486	0
1	456	4.847586416578	1
1	458	4.847978416578	0
1	621	4.883476183721	1
1	622	4.883852183721	0
1	645	5.051938356029	1
1	646	5.052322356029	0
1	697	5.402289808038	1
1	698	5.402665808038	0
2	0	0	0
3	0	0	0
4	0	0	0
4	49	0.779892954375	1
4	50	0.780300954375	0
4	64	0.781684954375	1
4	67	0.782060954375	0
4	107	1.217916528825	1
4	108	1.218324528825	0
4	120	1.219732528825	1
4	121	1.220116528825	0
4	237	3.953093050935	1
4	238	3.953477050935	0
4	259	4.101746637043	1
4	260	4.102122637043	0
4	274	4.123323223243	1
4	275	4.123699223243	0
4	297	4.169192542985	1
4	298	4.169576542985	0
4	336	4.629531666371	1
4	341	4.629907666371	0
4	341	4.629907666371	1
4	343	4.630299666371	0
4	443	4.846702416578	1
4	444	4.847086416578	0
4	487	4.848854416578	1
4	498	4.849230416578	0
4	630	5.032955843134	1
4	631	5.033339843134	0
4	727	5.594342788171	1
4	728	5.594718788171	0
5	0	0	0
5	144	3.309915463729	1
5	145	3.310323463729	0
5	157	3.311731463729	1
5	158	3.312115463729	0
5	197	3.706526457595	1
5	198	3.706934457595	0
5	212	3.708318457595	1
5	215	3.708694457595	0
5	340	4.629531666371	1
5	342	4.629923666371	0
5	370	4.648729882381	1
5	371	4.649113882381	0
5	392	4.677263651967	1
5	393	4.677639651967	0
5	425	4.754786592486	1
5	427	4.755162592486	0
5	667	5.154144844263	1
5	668	5.154520844263	0
5	675	5.177949281655	1
5	676	5.178333281655	0
5	705	5.563887389264	1
5	706	5.564271389264	0
5	742	5.714066900845	1
5	743	5.714442900845	0
6	0	0	0
6	494	4.848854416578	1
6	499	4.849262416578	0
6	553	4.850670416578	1
6	557	4.851054416578	0
7	0	0	0
7	495	4.848854416578	1
7	500	4.849262416578	0
7	554	4.850670416578	1
7	558	4.851054416578	0
8	0	0	0
8	17	0.159665286294	1
8	18	0.160073286294	0
8	32	0.161457286294	1
8	35	0.161833286294	0
8	75	0.99977022309	1
8	76	1.00017822309	0
8	88	1.00158622309	1
8	89	1.00197022309	0
8	175	3.499282815027	1
8	176	3.499666815027	0
8	229	3.862115300638	1
8	230	3.862491300638	0
8	282	4.141908995514	1
8	283	4.142292995514	0
8	319	4.1991922378	1
8	320	4.1995682378	0
8	409	4.753894592486	1
8	414	4.754270592486	0
8	414	4.754270592486	1
8	416	4.754662592486	0
8	470	4.848478416578	1
8	480	4.848854416578	0
8	614	4.882592183721	1
8	615	4.882976183721	0
8	652	5.052822356029	1
8	653	5.053198356029	0
8	690	5.401405808038	1
8	691	5.401789808038	0
9	0	0	0
9	150	3.310823463729	1
9	151	3.311231463729	0
9	165	3.312615463729	1
9	168	3.312991463729	0
9	191	3.705618457595	1
9	192	3.706026457595	0
9	204	3.707434457595	1
9	205	3.707818457595	0
9	352	4.630423666371	1
9	354	4.630799666371	0
9	377	4.649613882381	1
9	378	4.649989882381	0
9	385	4.676379651967	1
9	386	4.676763651967	0
9	413	4.753894592486	1
9	415	4.754286592486	0
9	660	5.153260844263	1
9	661	5.153644844263	0
9	682	5.178833281655	1
9	683	5.179209281655	0
9	712	5.564771389264	1
9	713	5.565147389264	0
9	735	5.713182900845	1
9	736	5.713566900845	0
10	0	0	0
10	477	4.848478416578	1
10	496	4.848886416578	0
10	541	4.850294416578	1
10	555	4.850678416578	0
11	0	0	0
11	478	4.848478416578	1
11	497	4.848886416578	0
11	542	4.850294416578	1
11	556	4.850678416578	0
12	0	0	0
13	0	0	0
13	525	4.849762416578	1
13	529	4.850170416578	0
13	590	4.851554416578	1
13	597	4.851930416578	0
14	0	0	0
14	512	4.849386416578	1
14	527	4.849794416578	0
14	570	4.851178416578	1
14	579	4.851554416578	0
15	0	0	0
16	0	0	0
17	0	0	0
17	526	4.849762416578	1
17	530	4.850170416578	0
17	592	4.851554416578	1
17	598	4.851930416578	0
18	0	0	0
18	513	4.849386416578	1
18	528	4.849794416578	0
18	572	4.851178416578	1
18	580	4.851554416578	0
19	0	0	0
20	8	0.158757286294	0
20	21	0.160573286294	0
20	220	3.861231300638	0
20	310	4.1983082378	0
20	398	4.753010592486	0
20	451	4.847586416578	0
20	643	5.051938356029	0
21	8	0.158757286294	7504
21	21	0.160573286294	47421
21	21	0.160573286294	47421
21	220	3.861231300638	47421
21	310	4.1983082378	47421
21	398	4.753010592486	47421
21	451	4.847586416578	47421
21	643	5.051938356029	47421
22	8	0.158757286294	7504
22	21	0.160573286294	7504
22	220	3.861231300638	7504
22	310	4.1983082378	7504
22	398	4.753010592486	7504
22	451	4.847586416578	7504
22	643	5.051938356029	7504
23	8	0.158757286294	0
23	21	0.160573286294	39917
23	220	3.861231300638	39917
23	310	4.1983082378	39917
23	398	4.753010592486	39917
23	451	4.847586416578	39917
23	643	5.051938356029	39917
24	11	0.158757286294	44
24	24	0.160573286294	41
24	81	1.00067822309	44
24	96	1.00247022309	40
24	182	3.500166815027	40
24	222	3.861231300638	41
24	289	4.142792995514	40
24	312	4.1983082378	41
24	400	4.753010592486	41
24	432	4.755162592486	40
24	456	4.847586416578	42
24	621	4.883476183721	40
24	645	5.051938356029	41
24	697	5.402289808038	40
25	11	0.158757286294	44
25	24	0.160573286294	41
25	81	1.00067822309	44
25	96	1.00247022309	40
25	182	3.500166815027	40
25	222	3.861231300638	41
25	289	4.142792995514	40
25	312	4.1983082378	41
25	400	4.753010592486	41
25	432	4.755162592486	40
25	456	4.847586416578	42
25	621	4.883476183721	40
25	645	5.051938356029	41
25	697	5.402289808038	40
26	11	0.158757286294	1
26	11	0.158757286294	0
26	24	0.160573286294	1
26	24	0.160573286294	0
26	81	1.00067822309	1
26	81	1.00067822309	0
26	96	1.00247022309	1
26	96	1.00247022309	0
26	182	3.500166815027	1
26	182	3.500166815027	0
26	222	3.861231300638	1
26	222	3.861231300638	0
26	289	4.142792995514	1
26	289	4.142792995514	0
26	312	4.1983082378	1
26	312	4.1983082378	0
26	400	4.753010592486	1
26	400	4.753010592486	0
26	432	4.755162592486	1
26	432	4.755162592486	0
26	456	4.847586416578	1
26	456	4.847586416578	0
26	621	4.883476183721	1
26	621	4.883476183721	0
26	645	5.051938356029	1
26	645	5.051938356029	0
26	697	5.402289808038	1
26	697	5.402289808038	0
27	11	0.158757286294	44
27	24	0.160573286294	41
27	81	1.00067822309	44
27	96	1.00247022309	40
27	182	3.500166815027	40
27	222	3.861231300638	41
27	289	4.142792995514	40
27	312	4.1983082378	41
27	400	4.753010592486	41
27	432	4.755162592486	40
27	456	4.847586416578	42
27	621	4.883476183721	40
27	645	5.051938356029	41
27	697	5.402289808038	40
28	11	0.158757286294	0
28	24	0.160573286294	0
28	81	1.00067822309	0
28	96	1.00247022309	0
28	182	3.500166815027	0
28	222	3.861231300638	0
28	289	4.142792995514	0
28	312	4.1983082378	0
28	400	4.753010592486	0
28	432	4.755162592486	0
28	456	4.847586416578	0
28	621	4.883476183721	0
28	645	5.051938356029	0
28	697	5.402289808038	0
29	11	0.158757286294	51
29	24	0.160573286294	48
29	81	1.00067822309	51
29	96	1.00247022309	47
29	182	3.500166815027	47
29	222	3.861231300638	48
29	289	4.142792995514	47
29	312	4.1983082378	48
29	400	4.753010592486	48
29	432	4.755162592486	47
29	456	4.847586416578	49
29	621	4.883476183721	47
29	645	5.051938356029	48
29	697	5.402289808038	47
30	13	0.159665286294	51
30	26	0.161457286294	48
30	83	1.00158622309	51
30	100	1.00334622309	47
30	184	3.501042815027	47
30	224	3.862115300638	48
30	291	4.143668995514	47
30	314	4.1991922378	48
30	402	4.753894592486	48
30	437	4.756038592486	47
30	463	4.848478416578	49
30	623	4.884352183721	47
30	647	5.052822356029	48
30	699	5.403165808038	47
31	13	0.159665286294	44
31	26	0.161457286294	41
31	83	1.00158622309	44
31	100	1.00334622309	40
31	184	3.501042815027	40
31	224	3.862115300638	41
31	291	4.143668995514	40
31	314	4.1991922378	41
31	402	4.753894592486	41
31	437	4.756038592486	40
31	463	4.848478416578	42
31	623	4.884352183721	40
31	647	5.052822356029	41
31	699	5.403165808038	40
32	15	0.159665286294	39689
32	148	3.310823463729	827478
33	15	0.159665286294	0
33	148	3.310823463729	0
34	15	0.159665286294	47194
34	15	0.159665286294	47194
34	28	0.161457286294	47194
34	226	3.862115300638	47196
34	316	4.1991922378	47197
34	404	4.753894592486	47198
34	465	4.848478416578	47200
34	649	5.052822356029	47201
35	15	0.159665286294	7504
35	28	0.161457286294	7504
36	15	0.159665286294	0
36	28	0.161457286294	0
36	28	0.161457286294	1
36	226	3.862115300638	0
36	226	3.862115300638	0
36	316	4.1991922378	0
36	316	4.1991922378	0
36	404	4.753894592486	0
36	404	4.753894592486	0
36	465	4.848478416578	0
36	465	4.848478416578	0
36	649	5.052822356029	0
36	649	5.052822356029	0
37	15	0.159665286294	7504
37	28	0.161457286294	7503
37	226	3.862115300638	7504
37	316	4.1991922378	7504
37	404	4.753894592486	7504
37	465	4.848478416578	7504
37	649	5.052822356029	7504
38	15	0.159665286294	39690
38	28	0.161457286294	39691
38	226	3.862115300638	39692
38	316	4.1991922378	39693
38	404	4.753894592486	39694
38	465	4.848478416578	39696
38	649	5.052822356029	39697
39	17	0.159665286294	44
39	32	0.161457286294	40
39	75	0.99977022309	44
39	88	1.00158622309	41
39	175	3.499282815027	41
39	229	3.862115300638	40
39	282	4.141908995514	41
39	319	4.1991922378	40
39	409	4.753894592486	40
39	412	4.753894592486	42
39	470	4.848478416578	40
39	614	4.882592183721	41
39	652	5.052822356029	40
39	690	5.401405808038	41
40	17	0.159665286294	44
40	32	0.161457286294	40
40	75	0.99977022309	44
40	88	1.00158622309	41
40	175	3.499282815027	41
40	229	3.862115300638	40
40	282	4.141908995514	41
40	319	4.1991922378	40
40	409	4.753894592486	40
40	412	4.753894592486	42
40	470	4.848478416578	40
40	614	4.882592183721	41
40	652	5.052822356029	40
40	690	5.401405808038	41
41	17	0.159665286294	1
41	17	0.159665286294	0
41	32	0.161457286294	1
41	32	0.161457286294	0
41	75	0.99977022309	1
41	75	0.99977022309	0
41	88	1.00158622309	1
41	88	1.00158622309	0
41	175	3.499282815027	1
41	175	3.499282815027	0
41	229	3.862115300638	1
41	229	3.862115300638	0
41	282	4.141908995514	1
41	282	4.141908995514	0
41	319	4.1991922378	1
41	319	4.1991922378	0
41	409	4.753894592486	1
41	409	4.753894592486	0
41	412	4.753894592486	1
41	414	4.754270592486	0
41	470	4.848478416578	1
41	470	4.848478416578	0
41	614	4.882592183721	1
41	614	4.882592183721	0
41	652	5.052822356029	1
41	652	5.052822356029	0
41	690	5.401405808038	1
41	690	5.401405808038	0
42	17	0.159665286294	44
42	32	0.161457286294	40
42	75	0.99977022309	44
42	88	1.00158622309	41
42	175	3.499282815027	41
42	229	3.862115300638	40
42	282	4.141908995514	41
42	319	4.1991922378	40
42	409	4.753894592486	40
42	414	4.754270592486	42
42	470	4.848478416578	40
42	614	4.882592183721	41
42	652	5.052822356029	40
42	690	5.401405808038	41
43	17	0.159665286294	0
43	32	0.161457286294	0
43	75	0.99977022309	0
43	88	1.00158622309	0
43	175	3.499282815027	0
43	229	3.862115300638	0
43	282	4.141908995514	0
43	319	4.1991922378	0
43	409	4.753894592486	0
43	414	4.754270592486	0.000376
43	470	4.848478416578	0
43	614	4.882592183721	0
43	652	5.052822356029	0
43	690	5.401405808038	0
44	17	0.159665286294	51
44	32	0.161457286294	47
44	75	0.99977022309	51
44	88	1.00158622309	48
44	175	3.499282815027	48
44	229	3.862115300638	47
44	282	4.141908995514	48
44	319	4.1991922378	47
44	409	4.753894592486	47
44	414	4.754270592486	49
44	470	4.848478416578	47
44	614	4.882592183721	48
44	652	5.052822356029	47
44	690	5.401405808038	48
45	19	0.160573286294	51
45	36	0.162333286294	47
45	77	1.00067822309	51
45	90	1.00247022309	48
45	177	3.500166815027	48
45	231	3.862991300638	47
45	284	4.142792995514	48
45	321	4.2000682378	47
45	417	4.754770592486	47
45	426	4.755162592486	49
45	501	4.849354416578	47
45	616	4.883476183721	48
45	654	5.053698356029	47
45	692	5.402289808038	48
46	19	0.160573286294	44
46	36	0.162333286294	40
46	77	1.00067822309	44
46	90	1.00247022309	41
46	177	3.500166815027	41
46	231	3.862991300638	40
46	284	4.142792995514	41
46	321	4.2000682378	40
46	417	4.754770592486	40
46	426	4.755162592486	42
46	501	4.849354416578	40
46	616	4.883476183721	41
46	654	5.053698356029	40
46	692	5.402289808038	41
47	21	0.160573286294	39916
47	38	0.162333286294	39917
47	233	3.862991300638	39917
47	323	4.2000682378	39917
47	419	4.754770592486	39917
47	503	4.849354416578	39917
47	656	5.053698356029	39917
48	21	0.160573286294	39690
48	38	0.162333286294	39691
48	233	3.862991300638	39692
48	323	4.2000682378	39693
48	419	4.754770592486	39694
48	503	4.849354416578	39696
48	656	5.053698356029	39697
49	21	0.160573286294	7504
49	38	0.162333286294	7503
49	233	3.862991300638	7504
49	323	4.2000682378	7504
49	419	4.754770592486	7504
49	503	4.849354416578	7504
49	656	5.053698356029	7504
50	21	0.160573286294	1
50	38	0.162333286294	0
50	220	3.861231300638	1
50	233	3.862991300638	0
50	310	4.1983082378	1
50	323	4.2000682378	0
50	398	4.753010592486	1
50	419	4.754770592486	0
50	451	4.847586416578	2
50	503	4.849354416578	0
50	643	5.051938356029	1
50	656	5.053698356029	0
51	28	0.161457286294	39690
51	226	3.862115300638	39691
51	316	4.1991922378	39692
51	404	4.753894592486	39693
51	465	4.848478416578	39694
51	649	5.052822356029	39696
52	28	0.161457286294	39917
52	226	3.862115300638	39917
52	316	4.1991922378	39917
52	404	4.753894592486	39917
52	465	4.848478416578	39917
52	649	5.052822356029	39917
53	28	0.161457286294	0
54	28	0.161457286294	1072
55	28	0.161457286294	4294967295
56	28	0.161457286294	0
56	226	3.862115300638	0
56	316	4.1991922378	0
56	404	4.753894592486	0
56	465	4.848478416578	0
56	649	5.052822356029	0
57	38	0.162333286294	0.00176
57	233	3.862991300638	0.00176
57	323	4.2000682378	0.00176
57	419	4.754770592486	0.00176
57	503	4.849354416578	0.001768
57	656	5.053698356029	0.00176
58	38	0.162333286294	0.00022
58	233	3.862991300638	0.0004125
58	323	4.2000682378	0.0005809375
58	419	4.754770592486	0.000728320313
58	503	4.849354416578	0.000858280274
58	656	5.053698356029	0.00097099524
59	38	0.162333286294	0.65647
59	233	3.862991300638	0.57460375
59	323	4.2000682378	0.50294671875
59	419	4.754770592486	0.440225761719
59	503	4.849354416578	0.385327501465
59	656	5.053698356029	0.337274278748
60	38	0.162333286294	2.6261
60	233	3.862991300638	2.2988275
60	323	4.2000682378	2.0123678125
60	419	4.754770592486	1.761631367189
60	503	4.849354416578	1.542168286134
60	656	5.053698356029	1.350068110232
61	38	0.162333286294	1072
61	233	3.862991300638	1072
61	323	4.2000682378	1608
61	419	4.754770592486	2144
61	503	4.849354416578	2680
61	656	5.053698356029	3216
62	38	0.162333286294	4294967295
62	233	3.862991300638	4294967295
62	323	4.2000682378	4294967295
62	419	4.754770592486	4294967295
62	503	4.849354416578	4294967295
62	656	5.053698356029	4294967295
63	38	0.162333286294	0
63	233	3.862991300638	0
63	323	4.2000682378	0
63	419	4.754770592486	0
63	503	4.849354416578	0
63	656	5.053698356029	0
64	40	0.778984954375	0
64	53	0.780800954375	0
64	250	4.100862637043	0
64	265	4.122439223243	0
64	325	4.628647666371	0
64	450	4.847586416578	0
64	718	5.593458788171	0
65	40	0.778984954375	7504
65	53	0.780800954375	202478
65	53	0.780800954375	202478
65	250	4.100862637043	202478
65	265	4.122439223243	202478
65	325	4.628647666371	202478
65	450	4.847586416578	202478
65	718	5.593458788171	202478
66	40	0.778984954375	7504
66	53	0.780800954375	7504
66	250	4.100862637043	7504
66	265	4.122439223243	7504
66	325	4.628647666371	7504
66	450	4.847586416578	7504
66	718	5.593458788171	7504
67	40	0.778984954375	0
67	53	0.780800954375	194974
67	250	4.100862637043	194974
67	265	4.122439223243	194974
67	325	4.628647666371	194974
67	450	4.847586416578	194974
67	718	5.593458788171	194974
68	43	0.778984954375	44
68	56	0.780800954375	41
68	113	1.218824528825	44
68	128	1.220616528825	40
68	244	3.953977050935	40
68	252	4.100862637043	41
68	267	4.122439223243	41
68	304	4.170076542985	40
68	327	4.628647666371	41
68	359	4.630799666371	40
68	452	4.847586416578	40
68	455	4.847586416578	42
68	637	5.033839843134	40
68	720	5.593458788171	41
69	43	0.778984954375	44
69	56	0.780800954375	41
69	113	1.218824528825	44
69	128	1.220616528825	40
69	244	3.953977050935	40
69	252	4.100862637043	41
69	267	4.122439223243	41
69	304	4.170076542985	40
69	327	4.628647666371	41
69	359	4.630799666371	40
69	452	4.847586416578	40
69	455	4.847586416578	42
69	637	5.033839843134	40
69	720	5.593458788171	41
70	43	0.778984954375	1
70	43	0.778984954375	0
70	56	0.780800954375	1
70	56	0.780800954375	0
70	113	1.218824528825	1
70	113	1.218824528825	0
70	128	1.220616528825	1
70	128	1.220616528825	0
70	244	3.953977050935	1
70	244	3.953977050935	0
70	252	4.100862637043	1
70	252	4.100862637043	0
70	267	4.122439223243	1
70	267	4.122439223243	0
70	304	4.170076542985	1
70	304	4.170076542985	0
70	327	4.628647666371	1
70	327	4.628647666371	0
70	359	4.630799666371	1
70	359	4.630799666371	0
70	452	4.847586416578	1
70	452	4.847586416578	0
70	455	4.847586416578	1
70	457	4.847962416578	0
70	637	5.033839843134	1
70	637	5.033839843134	0
70	720	5.593458788171	1
70	720	5.593458788171	0
71	43	0.778984954375	44
71	56	0.780800954375	41
71	113	1.218824528825	44
71	128	1.220616528825	40
71	244	3.953977050935	40
71	252	4.100862637043	41
71	267	4.122439223243	41
71	304	4.170076542985	40
71	327	4.628647666371	41
71	359	4.630799666371	40
71	452	4.847586416578	40
71	457	4.847962416578	42
71	637	5.033839843134	40
71	720	5.593458788171	41
72	43	0.778984954375	0
72	56	0.780800954375	0
72	113	1.218824528825	0
72	128	1.220616528825	0
72	244	3.953977050935	0
72	252	4.100862637043	0
72	267	4.122439223243	0
72	304	4.170076542985	0
72	327	4.628647666371	0
72	359	4.630799666371	0
72	452	4.847586416578	0
72	457	4.847962416578	0.000376
72	637	5.033839843134	0
72	720	5.593458788171	0
73	43	0.778984954375	51
73	56	0.780800954375	48
73	113	1.218824528825	51
73	128	1.220616528825	47
73	244	3.953977050935	47
73	252	4.100862637043	48
73	267	4.122439223243	48
73	304	4.170076542985	47
73	327	4.628647666371	48
73	359	4.630799666371	47
73	452	4.847586416578	47
73	457	4.847962416578	49
73	637	5.033839843134	47
73	720	5.593458788171	48
74	45	0.779892954375	51
74	58	0.781684954375	48
74	115	1.219732528825	51
74	132	1.221492528825	47
74	246	3.954853050935	47
74	254	4.101746637043	48
74	269	4.123323223243	48
74	306	4.170952542985	47
74	329	4.629531666371	48
74	364	4.631675666371	47
74	460	4.848462416578	47
74	479	4.848854416578	49
74	639	5.034715843134	47
74	722	5.594342788171	48
75	45	0.779892954375	44
75	58	0.781684954375	41
75	115	1.219732528825	44
75	132	1.221492528825	40
75	246	3.954853050935	40
75	254	4.101746637043	41
75	269	4.123323223243	41
75	306	4.170952542985	40
75	329	4.629531666371	41
75	364	4.631675666371	40
75	460	4.848462416578	40
75	479	4.848854416578	42
75	639	5.034715843134	40
75	722	5.594342788171	41
76	47	0.779892954375	194746
76	195	3.706526457595	926404
77	47	0.779892954375	0
77	195	3.706526457595	0
78	47	0.779892954375	202251
78	47	0.779892954375	202251
78	60	0.781684954375	202251
78	256	4.101746637043	202253
78	271	4.123323223243	202254
78	331	4.629531666371	202255
78	482	4.848854416578	202257
78	724	5.594342788171	202258
79	47	0.779892954375	7504
79	60	0.781684954375	7504
80	47	0.779892954375	0
80	60	0.781684954375	0
80	60	0.781684954375	1
80	256	4.101746637043	0
80	256	4.101746637043	0
80	271	4.123323223243	0
80	271	4.123323223243	0
80	331	4.629531666371	0
80	331	4.629531666371	0
80	482	4.848854416578	0
80	482	4.848854416578	0
80	724	5.594342788171	0
80	724	5.594342788171	0
81	47	0.779892954375	7504
81	60	0.781684954375	7503
81	256	4.101746637043	7504
81	271	4.123323223243	7504
81	331	4.629531666371	7504
81	482	4.848854416578	7504
81	724	5.594342788171	7504
82	47	0.779892954375	194747
82	60	0.781684954375	194748
82	256	4.101746637043	194749
82	271	4.123323223243	194750
82	331	4.629531666371	194751
82	482	4.848854416578	194753
82	724	5.594342788171	194754
83	49	0.779892954375	44
83	64	0.781684954375	40
83	107	1.217916528825	44
83	120	1.219732528825	41
83	237	3.953093050935	41
83	259	4.101746637043	40
83	274	4.123323223243	40
83	297	4.169192542985	41
83	336	4.629531666371	40
83	339	4.629531666371	42
83	443	4.846702416578	41
83	487	4.848854416578	40
83	630	5.032955843134	41
83	727	5.594342788171	40
84	49	0.779892954375	44
84	64	0.781684954375	40
84	107	1.217916528825	44
84	120	1.219732528825	41
84	237	3.953093050935	41
84	259	4.101746637043	40
84	274	4.123323223243	40
84	297	4.169192542985	41
84	336	4.629531666371	40
84	339	4.629531666371	42
84	443	4.846702416578	41
84	487	4.848854416578	40
84	630	5.032955843134	41
84	727	5.594342788171	40
85	49	0.779892954375	1
85	49	0.779892954375	0
85	64	0.781684954375	1
85	64	0.781684954375	0
85	107	1.217916528825	1
85	107	1.217916528825	0
85	120	1.219732528825	1
85	120	1.219732528825	0
85	237	3.953093050935	1
85	237	3.953093050935	0
85	259	4.101746637043	1
85	259	4.101746637043	0
85	274	4.123323223243	1
85	274	4.123323223243	0
85	297	4.169192542985	1
85	297	4.169192542985	0
85	336	4.629531666371	1
85	336	4.629531666371	0
85	339	4.629531666371	1
85	341	4.629907666371	0
85	443	4.846702416578	1
85	443	4.846702416578	0
85	487	4.848854416578	1
85	487	4.848854416578	0
85	630	5.032955843134	1
85	630	5.032955843134	0
85	727	5.594342788171	1
85	727	5.594342788171	0
86	49	0.779892954375	44
86	64	0.781684954375	40
86	107	1.217916528825	44
86	120	1.219732528825	41
86	237	3.953093050935	41
86	259	4.101746637043	40
86	274	4.123323223243	40
86	297	4.169192542985	41
86	336	4.629531666371	40
86	341	4.629907666371	42
86	443	4.846702416578	41
86	487	4.848854416578	40
86	630	5.032955843134	41
86	727	5.594342788171	40
87	49	0.779892954375	0
87	64	0.781684954375	0
87	107	1.217916528825	0
87	120	1.219732528825	0
87	237	3.953093050935	0
87	259	4.101746637043	0
87	274	4.123323223243	0
87	297	4.169192542985	0
87	336	4.629531666371	0
87	341	4.629907666371	0.000376
87	443	4.846702416578	0
87	487	4.848854416578	0
87	630	5.032955843134	0
87	727	5.594342788171	0
88	49	0.779892954375	51
88	64	0.781684954375	47
88	107	1.217916528825	51
88	120	1.219732528825	48
88	237	3.953093050935	48
88	259	4.101746637043	47
88	274	4.123323223243	47
88	297	4.169192542985	48
88	336	4.629531666371	47
88	341	4.629907666371	49
88	443	4.846702416578	48
88	487	4.848854416578	47
88	630	5.032955843134	48
88	727	5.594342788171	47
89	51	0.780800954375	51
89	68	0.782560954375	47
89	109	1.218824528825	51
89	122	1.220616528825	48
89	239	3.953977050935	48
89	261	4.102622637043	47
89	276	4.124199223243	47
89	299	4.170076542985	48
89	344	4.630407666371	47
89	353	4.630799666371	49
89	445	4.847586416578	48
89	514	4.849730416578	47
89	632	5.033839843134	48
89	729	5.595218788171	47
90	51	0.780800954375	44
90	68	0.782560954375	40
90	109	1.218824528825	44
90	122	1.220616528825	41
90	239	3.953977050935	41
90	261	4.102622637043	40
90	276	4.124199223243	40
90	299	4.170076542985	41
90	344	4.630407666371	40
90	353	4.630799666371	42
90	445	4.847586416578	41
90	514	4.849730416578	40
90	632	5.033839843134	41
90	729	5.595218788171	40
91	53	0.780800954375	194973
91	70	0.782560954375	194974
91	263	4.102622637043	194974
91	278	4.124199223243	194974
91	346	4.630407666371	194974
91	516	4.849730416578	194974
91	731	5.595218788171	194974
92	53	0.780800954375	194747
92	70	0.782560954375	194748
92	263	4.102622637043	194749
92	278	4.124199223243	194750
92	346	4.630407666371	194751
92	516	4.849730416578	194753
92	731	5.595218788171	194754
93	53	0.780800954375	7504
93	70	0.782560954375	7503
93	263	4.102622637043	7504
93	278	4.124199223243	7504
93	346	4.630407666371	7504
93	516	4.849730416578	7504
93	731	5.595218788171	7504
94	53	0.780800954375	1
94	70	0.782560954375	0
94	250	4.100862637043	1
94	263	4.102622637043	0
94	265	4.122439223243	1
94	278	4.124199223243	0
94	325	4.628647666371	1
94	346	4.630407666371	0
94	450	4.847586416578	2
94	516	4.849730416578	0
94	718	5.593458788171	1
94	731	5.595218788171	0
95	60	0.781684954375	194747
95	256	4.101746637043	194748
95	271	4.123323223243	194749
95	331	4.629531666371	194750
95	482	4.848854416578	194751
95	724	5.594342788171	194753
96	60	0.781684954375	194974
96	256	4.101746637043	194974
96	271	4.123323223243	194974
96	331	4.629531666371	194974
96	482	4.848854416578	194974
96	724	5.594342788171	194974
97	60	0.781684954375	0
98	60	0.781684954375	1072
99	60	0.781684954375	4294967295
100	60	0.781684954375	0
100	256	4.101746637043	0
100	271	4.123323223243	0
100	331	4.629531666371	0
100	482	4.848854416578	0
100	724	5.594342788171	0
101	70	0.782560954375	0.00176
101	263	4.102622637043	0.00176
101	278	4.124199223243	0.00176
101	346	4.630407666371	0.00176
101	516	4.849730416578	0.002144
101	731	5.595218788171	0.00176
102	70	0.782560954375	0.00022
102	263	4.102622637043	0.0004125
102	278	4.124199223243	0.0005809375
102	346	4.630407666371	0.000728320313
102	516	4.849730416578	0.000905280274
102	731	5.595218788171	0.00101212024
103	70	0.782560954375	0.65647
103	263	4.102622637043	0.57460375
103	278	4.124199223243	0.50294671875
103	346	4.630407666371	0.440225761719
103	516	4.849730416578	0.385374501465
103	731	5.595218788171	0.337309528748
104	70	0.782560954375	2.6261
104	263	4.102622637043	2.2988275
104	278	4.124199223243	2.0123678125
104	346	4.630407666371	1.761631367189
104	516	4.849730416578	1.542403286134
104	731	5.595218788171	1.350250235232
105	70	0.782560954375	1072
105	263	4.102622637043	1072
105	278	4.124199223243	1608
105	346	4.630407666371	2144
105	516	4.849730416578	2680
105	731	5.595218788171	3216
106	70	0.782560954375	4294967295
106	263	4.102622637043	4294967295
106	278	4.124199223243	4294967295
106	346	4.630407666371	4294967295
106	516	4.849730416578	4294967295
106	731	5.595218788171	4294967295
107	70	0.782560954375	0
107	263	4.102622637043	0
107	278	4.124199223243	0
107	346	4.630407666371	0
107	516	4.849730416578	0
107	731	5.595218788171	0
108	72	0.99977022309	0
108	85	1.00158622309	0
108	173	3.499282815027	0
108	280	4.141908995514	0
108	407	4.753894592486	0
108	612	4.882592183721	0
108	688	5.401405808038	0
109	72	0.99977022309	7504
109	85	1.00158622309	257674
109	85	1.00158622309	257674
109	173	3.499282815027	257674
109	280	4.141908995514	257674
109	407	4.753894592486	257674
109	612	4.882592183721	257674
109	688	5.401405808038	257674
110	72	0.99977022309	7504
110	85	1.00158622309	7504
110	173	3.499282815027	7504
110	280	4.141908995514	7504
110	407	4.753894592486	7504
110	612	4.882592183721	7504
110	688	5.401405808038	7504
111	72	0.99977022309	0
111	85	1.00158622309	250170
111	173	3.499282815027	250170
111	280	4.141908995514	250170
111	407	4.753894592486	250170
111	612	4.882592183721	250170
111	688	5.401405808038	250170
112	79	1.00067822309	249942
112	111	1.218824528825	304479
113	79	1.00067822309	0
113	111	1.218824528825	0
114	79	1.00067822309	257447
114	79	1.00067822309	257447
114	92	1.00247022309	257447
114	179	3.500166815027	257449
114	286	4.142792995514	257450
114	429	4.755162592486	257452
114	618	4.883476183721	257453
114	694	5.402289808038	257454
115	79	1.00067822309	7504
115	92	1.00247022309	7504
116	79	1.00067822309	0
116	92	1.00247022309	0
116	92	1.00247022309	1
116	179	3.500166815027	0
116	179	3.500166815027	0
116	286	4.142792995514	0
116	286	4.142792995514	0
116	429	4.755162592486	0
116	429	4.755162592486	0
116	618	4.883476183721	0
116	618	4.883476183721	0
116	694	5.402289808038	0
116	694	5.402289808038	0
117	79	1.00067822309	7504
117	92	1.00247022309	7503
117	179	3.500166815027	7504
117	286	4.142792995514	7504
117	429	4.755162592486	7504
117	618	4.883476183721	7504
117	694	5.402289808038	7504
118	79	1.00067822309	249943
118	92	1.00247022309	249944
118	179	3.500166815027	249945
118	286	4.142792995514	249946
118	429	4.755162592486	249948
118	618	4.883476183721	249949
118	694	5.402289808038	249950
119	85	1.00158622309	250169
119	102	1.00334622309	250170
119	186	3.501042815027	250170
119	293	4.143668995514	250170
119	439	4.756038592486	250170
119	625	4.884352183721	250170
119	701	5.403165808038	250170
120	85	1.00158622309	249943
120	102	1.00334622309	249944
120	186	3.501042815027	249945
120	293	4.143668995514	249946
120	439	4.756038592486	249948
120	625	4.884352183721	249949
120	701	5.403165808038	249950
121	85	1.00158622309	7504
121	102	1.00334622309	7503
121	186	3.501042815027	7504
121	293	4.143668995514	7504
121	439	4.756038592486	7504
121	625	4.884352183721	7504
121	701	5.403165808038	7504
122	85	1.00158622309	1
122	102	1.00334622309	0
122	173	3.499282815027	1
122	186	3.501042815027	0
122	280	4.141908995514	1
122	293	4.143668995514	0
122	407	4.753894592486	2
122	439	4.756038592486	0
122	612	4.882592183721	1
[...]
170	212	3.708318457595	0
170	340	4.629531666371	0
170	370	4.648729882381	0
170	392	4.677263651967	0
170	425	4.754786592486	0
170	667	5.154144844263	0
170	675	5.177949281655	0
170	705	5.563887389264	0
170	742	5.714066900845	0
171	144	3.309915463729	51
171	157	3.311731463729	48
171	197	3.706526457595	51
171	212	3.708318457595	47
171	340	4.629531666371	49
171	370	4.648729882381	48
171	392	4.677263651967	47
171	425	4.754786592486	47
171	667	5.154144844263	47
171	675	5.177949281655	48
171	705	5.563887389264	48
171	742	5.714066900845	47
172	146	3.310823463729	51
172	159	3.312615463729	48
172	199	3.707434457595	51
172	216	3.709194457595	47
172	347	4.630423666371	49
172	372	4.649613882381	48
172	394	4.678139651967	47
172	434	4.755662592486	47
172	669	5.155020844263	47
172	677	5.178833281655	48
172	707	5.564771389264	48
172	744	5.714942900845	47
173	146	3.310823463729	44
173	159	3.312615463729	41
173	199	3.707434457595	44
173	216	3.709194457595	40
173	347	4.630423666371	42
173	372	4.649613882381	41
173	394	4.678139651967	40
173	434	4.755662592486	40
173	669	5.155020844263	40
173	677	5.178833281655	41
173	707	5.564771389264	41
173	744	5.714942900845	40
174	148	3.310823463729	834983
174	148	3.310823463729	834983
174	161	3.312615463729	834983
174	349	4.630423666371	834986
174	374	4.649613882381	834987
174	679	5.178833281655	834988
174	709	5.564771389264	834989
175	148	3.310823463729	7504
175	161	3.312615463729	7504
176	148	3.310823463729	0
176	161	3.312615463729	0
176	161	3.312615463729	1
176	349	4.630423666371	0
176	349	4.630423666371	0
176	374	4.649613882381	0
176	374	4.649613882381	0
176	679	5.178833281655	0
176	679	5.178833281655	0
176	709	5.564771389264	0
176	709	5.564771389264	0
177	148	3.310823463729	7504
177	161	3.312615463729	7503
177	349	4.630423666371	7504
177	374	4.649613882381	7504
177	679	5.178833281655	7504
177	709	5.564771389264	7504
178	148	3.310823463729	827479
178	161	3.312615463729	827480
178	349	4.630423666371	827482
178	374	4.649613882381	827483
178	679	5.178833281655	827484
178	709	5.564771389264	827485
179	150	3.310823463729	44
179	165	3.312615463729	40
179	191	3.705618457595	44
179	204	3.707434457595	41
179	352	4.630423666371	40
179	377	4.649613882381	40
179	385	4.676379651967	41
179	413	4.753894592486	42
179	660	5.153260844263	41
179	682	5.178833281655	40
179	712	5.564771389264	40
179	735	5.713182900845	41
180	150	3.310823463729	44
180	165	3.312615463729	40
180	191	3.705618457595	44
180	204	3.707434457595	41
180	352	4.630423666371	40
180	377	4.649613882381	40
180	385	4.676379651967	41
180	413	4.753894592486	42
180	660	5.153260844263	41
180	682	5.178833281655	40
180	712	5.564771389264	40
180	735	5.713182900845	41
181	150	3.310823463729	1
181	150	3.310823463729	0
181	165	3.312615463729	1
181	165	3.312615463729	0
181	191	3.705618457595	1
181	191	3.705618457595	0
181	204	3.707434457595	1
181	204	3.707434457595	0
181	352	4.630423666371	1
181	352	4.630423666371	0
181	377	4.649613882381	1
181	377	4.649613882381	0
181	385	4.676379651967	1
181	385	4.676379651967	0
181	413	4.753894592486	1
181	413	4.753894592486	0
181	660	5.153260844263	1
181	660	5.153260844263	0
181	682	5.178833281655	1
181	682	5.178833281655	0
181	712	5.564771389264	1
181	712	5.564771389264	0
181	735	5.713182900845	1
181	735	5.713182900845	0
182	150	3.310823463729	44
182	165	3.312615463729	40
182	191	3.705618457595	44
182	204	3.707434457595	41
182	352	4.630423666371	40
182	377	4.649613882381	40
182	385	4.676379651967	41
182	413	4.753894592486	42
182	660	5.153260844263	41
182	682	5.178833281655	40
182	712	5.564771389264	40
182	735	5.713182900845	41
183	150	3.310823463729	0
183	165	3.312615463729	0
183	191	3.705618457595	0
183	204	3.707434457595	0
183	352	4.630423666371	0
183	377	4.649613882381	0
183	385	4.676379651967	0
183	413	4.753894592486	0
183	660	5.153260844263	0
183	682	5.178833281655	0
183	712	5.564771389264	0
183	735	5.713182900845	0
184	150	3.310823463729	51
184	165	3.312615463729	47
184	191	3.705618457595	51
184	204	3.707434457595	48
184	352	4.630423666371	47
184	377	4.649613882381	47
184	385	4.676379651967	48
184	413	4.753894592486	49
184	660	5.153260844263	48
184	682	5.178833281655	47
184	712	5.564771389264	47
184	735	5.713182900845	48
185	152	3.311731463729	51
185	169	3.313491463729	47
185	193	3.706526457595	51
185	206	3.708318457595	48
185	361	4.631299666371	47
185	379	4.650489882381	47
185	387	4.677263651967	48
185	420	4.754786592486	49
185	662	5.154144844263	48
185	684	5.179709281655	47
185	714	5.565647389264	47
185	737	5.714066900845	48
186	152	3.311731463729	44
186	169	3.313491463729	40
186	193	3.706526457595	44
186	206	3.708318457595	41
186	361	4.631299666371	40
186	379	4.650489882381	40
186	387	4.677263651967	41
186	420	4.754786592486	42
186	662	5.154144844263	41
186	684	5.179709281655	40
186	714	5.565647389264	40
186	737	5.714066900845	41
187	154	3.311731463729	827705
187	171	3.313491463729	827706
187	363	4.631299666371	827706
187	381	4.650489882381	827706
187	686	5.179709281655	827706
187	716	5.565647389264	827706
188	154	3.311731463729	827479
188	171	3.313491463729	827480
188	363	4.631299666371	827482
188	381	4.650489882381	827483
188	686	5.179709281655	827484
188	716	5.565647389264	827485
189	154	3.311731463729	7504
189	171	3.313491463729	7503
189	363	4.631299666371	7504
189	381	4.650489882381	7504
189	686	5.179709281655	7504
189	716	5.565647389264	7504
190	154	3.311731463729	1
190	171	3.313491463729	0
190	335	4.629531666371	2
190	363	4.631299666371	0
190	368	4.648729882381	1
190	381	4.650489882381	0
190	673	5.177949281655	1
190	686	5.179709281655	0
190	703	5.563887389264	1
190	716	5.565647389264	0
191	161	3.312615463729	827479
191	349	4.630423666371	827480
191	374	4.649613882381	827482
191	679	5.178833281655	827483
191	709	5.564771389264	827484
192	161	3.312615463729	827706
192	349	4.630423666371	827706
192	374	4.649613882381	827706
192	679	5.178833281655	827706
192	709	5.564771389264	827706
193	161	3.312615463729	0
194	161	3.312615463729	1072
195	161	3.312615463729	4294967295
196	161	3.312615463729	0
196	349	4.630423666371	0
196	374	4.649613882381	0
196	679	5.178833281655	0
196	709	5.564771389264	0
197	171	3.313491463729	0.00176
197	363	4.631299666371	0.001768
197	381	4.650489882381	0.00176
197	686	5.179709281655	0.00176
197	716	5.565647389264	0.00176
198	171	3.313491463729	0.00022
198	363	4.631299666371	0.0004135
198	381	4.650489882381	0.0005818125
198	686	5.179709281655	0.000729085938
198	716	5.565647389264	0.000857950196
199	171	3.313491463729	0.65647
199	363	4.631299666371	0.57460475
199	381	4.650489882381	0.50294746875
199	686	5.179709281655	0.440226308594
199	716	5.565647389264	0.385326884278
200	171	3.313491463729	2.6261
200	363	4.631299666371	2.2988325
200	381	4.650489882381	2.0123716875
200	686	5.179709281655	1.761634320314
200	716	5.565647389264	1.542165487308
201	171	3.313491463729	1072
201	363	4.631299666371	1608
201	381	4.650489882381	2144
201	686	5.179709281655	2680
201	716	5.565647389264	3216
202	171	3.313491463729	4294967295
202	363	4.631299666371	4294967295
202	381	4.650489882381	4294967295
202	686	5.179709281655	4294967295
202	716	5.565647389264	4294967295
203	171	3.313491463729	0
203	363	4.631299666371	0
203	381	4.650489882381	0
203	686	5.179709281655	0
203	716	5.565647389264	0
204	188	3.705618457595	0
204	201	3.707434457595	0
204	383	4.676379651967	0
204	408	4.753894592486	0
204	658	5.153260844263	0
204	733	5.713182900845	0
205	188	3.705618457595	7504
205	201	3.707434457595	934136
205	201	3.707434457595	934136
205	383	4.676379651967	934136
205	408	4.753894592486	934136
205	658	5.153260844263	934136
205	733	5.713182900845	934136
206	188	3.705618457595	7504
206	201	3.707434457595	7504
206	383	4.676379651967	7504
206	408	4.753894592486	7504
206	658	5.153260844263	7504
206	733	5.713182900845	7504
207	188	3.705618457595	0
207	201	3.707434457595	926632
207	383	4.676379651967	926632
207	408	4.753894592486	926632
207	658	5.153260844263	926632
207	733	5.713182900845	926632
208	195	3.706526457595	933909
208	195	3.706526457595	933909
208	208	3.708318457595	933909
208	389	4.677263651967	933911
208	422	4.754786592486	933913
208	664	5.154144844263	933914
208	739	5.714066900845	933915
209	195	3.706526457595	7504
209	208	3.708318457595	7504
210	195	3.706526457595	0
210	208	3.708318457595	0
210	208	3.708318457595	1
210	389	4.677263651967	0
210	389	4.677263651967	0
210	422	4.754786592486	0
210	422	4.754786592486	0
210	664	5.154144844263	0
210	664	5.154144844263	0
210	739	5.714066900845	0
210	739	5.714066900845	0
211	195	3.706526457595	7504
211	208	3.708318457595	7503
211	389	4.677263651967	7504
211	422	4.754786592486	7504
211	664	5.154144844263	7504
211	739	5.714066900845	7504
212	195	3.706526457595	926405
212	208	3.708318457595	926406
212	389	4.677263651967	926407
212	422	4.754786592486	926409
212	664	5.154144844263	926410
212	739	5.714066900845	926411
213	201	3.707434457595	926631
213	218	3.709194457595	926632
213	396	4.678139651967	926632
213	436	4.755662592486	926632
213	671	5.155020844263	926632
213	746	5.714942900845	926632
214	201	3.707434457595	926405
214	218	3.709194457595	926406
214	396	4.678139651967	926407
214	436	4.755662592486	926409
214	671	5.155020844263	926410
214	746	5.714942900845	926411
215	201	3.707434457595	7504
215	218	3.709194457595	7503
215	396	4.678139651967	7504
215	436	4.755662592486	7504
215	671	5.155020844263	7504
215	746	5.714942900845	7504
216	201	3.707434457595	1
216	218	3.709194457595	0
216	383	4.676379651967	1
216	396	4.678139651967	0
216	408	4.753894592486	2
216	436	4.755662592486	0
216	658	5.153260844263	1
216	671	5.155020844263	0
216	733	5.713182900845	1
216	746	5.714942900845	0
217	208	3.708318457595	926405
217	389	4.677263651967	926406
217	422	4.754786592486	926407
217	664	5.154144844263	926409
217	739	5.714066900845	926410
218	208	3.708318457595	926632
218	389	4.677263651967	926632
218	422	4.754786592486	926632
218	664	5.154144844263	926632
218	739	5.714066900845	926632
219	208	3.708318457595	0
220	208	3.708318457595	1072
221	208	3.708318457595	4294967295
222	208	3.708318457595	0
222	389	4.677263651967	0
222	422	4.754786592486	0
222	664	5.154144844263	0
222	739	5.714066900845	0
223	218	3.709194457595	0.00176
223	396	4.678139651967	0.00176
223	436	4.755662592486	0.001768
223	671	5.155020844263	0.00176
223	746	5.714942900845	0.00176
224	218	3.709194457595	0.00022
224	396	4.678139651967	0.0004125
224	436	4.755662592486	0.0005819375
224	671	5.155020844263	0.000729195313
224	746	5.714942900845	0.000858045899
225	218	3.709194457595	0.65647
225	396	4.678139651967	0.57460375
225	436	4.755662592486	0.50294771875
225	671	5.155020844263	0.440226511719
225	746	5.714942900845	0.38532704834
226	218	3.709194457595	2.6261
226	396	4.678139651967	2.2988275
226	436	4.755662592486	2.0123728125
226	671	5.155020844263	1.761635242189
226	746	5.714942900845	1.542166239259
227	218	3.709194457595	1072
227	396	4.678139651967	1608
227	436	4.755662592486	2144
227	671	5.155020844263	2680
227	746	5.714942900845	3216
228	218	3.709194457595	4294967295
228	396	4.678139651967	4294967295
228	436	4.755662592486	4294967295
228	671	5.155020844263	4294967295
228	746	5.714942900845	4294967295
229	218	3.709194457595	0
229	396	4.678139651967	0
229	436	4.755662592486	0
229	671	5.155020844263	0
229	746	5.714942900845	0
230	471	4.848478416578	0
230	535	4.850294416578	0
231	471	4.848478416578	7504
231	535	4.850294416578	1219851
231	535	4.850294416578	1219851
232	471	4.848478416578	7504
232	535	4.850294416578	7504
233	471	4.848478416578	0
233	535	4.850294416578	1212347
234	473	4.848478416578	0
234	536	4.850294416578	0
235	473	4.848478416578	7504
235	536	4.850294416578	1219851
235	536	4.850294416578	1219851
236	473	4.848478416578	7504
236	536	4.850294416578	7504
237	473	4.848478416578	0
237	536	4.850294416578	1212347
238	477	4.848478416578	44
238	541	4.850294416578	41
239	477	4.848478416578	44
239	541	4.850294416578	41
240	477	4.848478416578	1
240	477	4.848478416578	0
240	541	4.850294416578	1
240	541	4.850294416578	0
241	477	4.848478416578	44
241	541	4.850294416578	41
242	477	4.848478416578	0
242	541	4.850294416578	0
243	477	4.848478416578	51
243	541	4.850294416578	48
244	478	4.848478416578	44
244	542	4.850294416578	41
245	478	4.848478416578	44
245	542	4.850294416578	41
246	478	4.848478416578	1
246	478	4.848478416578	0
246	542	4.850294416578	1
246	542	4.850294416578	0
247	478	4.848478416578	44
247	542	4.850294416578	41
248	478	4.848478416578	0
248	542	4.850294416578	0
249	478	4.848478416578	51
249	542	4.850294416578	48
250	488	4.848854416578	0
250	547	4.850670416578	0
251	488	4.848854416578	7504
251	547	4.850670416578	1219945
251	547	4.850670416578	1219945
252	488	4.848854416578	7504
252	547	4.850670416578	7504
253	488	4.848854416578	0
253	547	4.850670416578	1212441
254	490	4.848854416578	0
254	548	4.850670416578	0
255	490	4.848854416578	7504
255	548	4.850670416578	1219945
255	548	4.850670416578	1219945
256	490	4.848854416578	7504
256	548	4.850670416578	7504
257	490	4.848854416578	0
257	548	4.850670416578	1212441
258	494	4.848854416578	44
258	553	4.850670416578	41
259	494	4.848854416578	44
259	553	4.850670416578	41
260	494	4.848854416578	1
260	494	4.848854416578	0
260	553	4.850670416578	1
260	553	4.850670416578	0
261	494	4.848854416578	44
261	553	4.850670416578	41
262	494	4.848854416578	0
262	553	4.850670416578	0
263	494	4.848854416578	51
263	553	4.850670416578	48
264	495	4.848854416578	44
264	554	4.850670416578	41
265	495	4.848854416578	44
265	554	4.850670416578	41
266	495	4.848854416578	1
266	495	4.848854416578	0
266	554	4.850670416578	1
266	554	4.850670416578	0
267	495	4.848854416578	44
267	554	4.850670416578	41
268	495	4.848854416578	0
268	554	4.850670416578	0
269	495	4.848854416578	51
269	554	4.850670416578	48
270	504	4.849386416578	51
270	559	4.851178416578	48
271	504	4.849386416578	44
271	559	4.851178416578	41
272	505	4.849386416578	51
272	560	4.851178416578	48
273	505	4.849386416578	44
273	560	4.851178416578	41
274	508	4.849386416578	1212119
274	521	4.849762416578	1212213
275	508	4.849386416578	0
275	521	4.849762416578	0
276	508	4.849386416578	1219624
276	508	4.849386416578	1219624
276	563	4.851178416578	1219624
277	508	4.849386416578	7504
277	563	4.851178416578	7504
278	508	4.849386416578	0
278	563	4.851178416578	0
278	563	4.851178416578	1
279	508	4.849386416578	7504
279	563	4.851178416578	7503
280	508	4.849386416578	1212120
280	563	4.851178416578	1212121
281	509	4.849386416578	1212119
281	522	4.849762416578	1212213
282	509	4.849386416578	0
282	522	4.849762416578	0
283	509	4.849386416578	1219624
283	509	4.849386416578	1219624
283	564	4.851178416578	1219624
284	509	4.849386416578	7504
284	564	4.851178416578	7504
285	509	4.849386416578	0
285	564	4.851178416578	0
285	564	4.851178416578	1
286	509	4.849386416578	7504
286	564	4.851178416578	7503
287	509	4.849386416578	1212120
287	564	4.851178416578	1212121
288	512	4.849386416578	44
288	570	4.851178416578	40
289	512	4.849386416578	44
289	570	4.851178416578	40
290	512	4.849386416578	1
290	512	4.849386416578	0
290	570	4.851178416578	1
290	570	4.851178416578	0
291	512	4.849386416578	44
291	570	4.851178416578	40
292	512	4.849386416578	0
292	570	4.851178416578	0
293	512	4.849386416578	51
293	570	4.851178416578	47
294	513	4.849386416578	44
294	572	4.851178416578	40
295	513	4.849386416578	44
295	572	4.851178416578	40
296	513	4.849386416578	1
296	513	4.849386416578	0
296	572	4.851178416578	1
296	572	4.851178416578	0
297	513	4.849386416578	44
297	572	4.851178416578	40
298	513	4.849386416578	0
298	572	4.851178416578	0
299	513	4.849386416578	51
299	572	4.851178416578	47
300	517	4.849762416578	51
300	577	4.851554416578	48
301	517	4.849762416578	44
301	577	4.851554416578	41
302	518	4.849762416578	51
302	578	4.851554416578	48
303	518	4.849762416578	44
303	578	4.851554416578	41
304	521	4.849762416578	1219718
304	521	4.849762416578	1219718
304	583	4.851554416578	1219718
305	521	4.849762416578	7504
305	583	4.851554416578	7504
306	521	4.849762416578	0
306	583	4.851554416578	0
306	583	4.851554416578	1
307	521	4.849762416578	7504
307	583	4.851554416578	7503
308	521	4.849762416578	1212214
308	583	4.851554416578	1212215
309	522	4.849762416578	1219718
309	522	4.849762416578	1219718
309	584	4.851554416578	1219718
310	522	4.849762416578	7504
310	584	4.851554416578	7504
311	522	4.849762416578	0
311	584	4.851554416578	0
311	584	4.851554416578	1
312	522	4.849762416578	7504
312	584	4.851554416578	7503
313	522	4.849762416578	1212214
313	584	4.851554416578	1212215
314	525	4.849762416578	44
314	590	4.851554416578	40
315	525	4.849762416578	44
315	590	4.851554416578	40
316	525	4.849762416578	1
316	525	4.849762416578	0
316	590	4.851554416578	1
316	590	4.851554416578	0
317	525	4.849762416578	44
317	590	4.851554416578	40
318	525	4.849762416578	0
318	590	4.851554416578	0
319	525	4.849762416578	51
319	590	4.851554416578	47
320	526	4.849762416578	44
320	592	4.851554416578	40
321	526	4.849762416578	44
321	592	4.851554416578	40
322	526	4.849762416578	1
322	526	4.849762416578	0
322	592	4.851554416578	1
322	592	4.851554416578	0
323	526	4.849762416578	44
323	592	4.851554416578	40
324	526	4.849762416578	0
324	592	4.851554416578	0
325	526	4.849762416578	51
325	592	4.851554416578	47
326	531	4.850294416578	51
326	599	4.852054416578	47
327	531	4.850294416578	44
327	599	4.852054416578	40
328	532	4.850294416578	51
328	600	4.852054416578	47
329	532	4.850294416578	44
329	600	4.852054416578	40
330	535	4.850294416578	1212346
330	603	4.852054416578	1212347
331	535	4.850294416578	1212120
331	603	4.852054416578	1212121
332	535	4.850294416578	7504
332	603	4.852054416578	7503
333	535	4.850294416578	1
333	603	4.852054416578	0
334	536	4.850294416578	1212346
334	604	4.852054416578	1212347
335	536	4.850294416578	1212120
335	604	4.852054416578	1212121
336	536	4.850294416578	7504
336	604	4.852054416578	7503
337	536	4.850294416578	1
337	604	4.852054416578	0
338	543	4.850670416578	51
338	605	4.852430416578	47
339	543	4.850670416578	44
339	605	4.852430416578	40
340	544	4.850670416578	51
340	606	4.852430416578	47
341	544	4.850670416578	44
341	606	4.852430416578	40
342	547	4.850670416578	1212440
342	609	4.852430416578	1212441
343	547	4.850670416578	1212214
343	609	4.852430416578	1212215
344	547	4.850670416578	7504
344	609	4.852430416578	7503
345	547	4.850670416578	1
345	609	4.852430416578	0
346	548	4.850670416578	1212440
346	610	4.852430416578	1212441
347	548	4.850670416578	1212214
347	610	4.852430416578	1212215
348	548	4.850670416578	7504
348	610	4.852430416578	7503
349	548	4.850670416578	1
349	610	4.852430416578	0
350	563	4.851178416578	1212120
351	563	4.851178416578	1212347
352	563	4.851178416578	0
353	563	4.851178416578	1072
354	563	4.851178416578	4294967295
355	563	4.851178416578	0
356	564	4.851178416578	1212120
357	564	4.851178416578	1212347
358	564	4.851178416578	0
359	564	4.851178416578	1072
360	564	4.851178416578	4294967295
361	564	4.851178416578	0
362	583	4.851554416578	1212214
363	583	4.851554416578	1212441
364	583	4.851554416578	0
365	583	4.851554416578	1072
366	583	4.851554416578	4294967295
367	583	4.851554416578	0
368	584	4.851554416578	1212214
369	584	4.851554416578	1212441
370	584	4.851554416578	0
371	584	4.851554416578	1072
372	584	4.851554416578	4294967295
373	584	4.851554416578	0
374	603	4.852054416578	0.00176
375	603	4.852054416578	0.00022
376	603	4.852054416578	0.65647
377	603	4.852054416578	2.6261
378	603	4.852054416578	1072
379	603	4.852054416578	4294967295
380	603	4.852054416578	0
381	604	4.852054416578	0.00176
382	604	4.852054416578	0.00022
383	604	4.852054416578	0.65647
384	604	4.852054416578	2.6261
385	604	4.852054416578	1072
386	604	4.852054416578	4294967295
387	604	4.852054416578	0
388	609	4.852430416578	0.00176
389	609	4.852430416578	0.00022
390	609	4.852430416578	0.65647
391	609	4.852430416578	2.6261
392	609	4.852430416578	1072
393	609	4.852430416578	4294967295
394	609	4.852430416578	0
395	610	4.852430416578	0.00176
396	610	4.852430416578	0.00022
397	610	4.852430416578	0.65647
398	610	4.852430416578	2.6261
399	610	4.852430416578	1072
400	610	4.852430416578	4294967295
401	610	4.852430416578	0

