version 2
run L_1_2-0-20220110-16:41:21-1208
attr configname L_1_2
attr datetime 20220110-16:41:21
attr experiment L_1_2
attr inifile omnetpp.ini
attr iterationvars ""
attr iterationvarsf ""
attr measurement ""
attr network scenario
attr processid 1208
attr repetition 0
attr replication #0
attr resultdir results
attr runnumber 0
attr seedset 0
param **.client1.app[0].leave 0.0
param **.client2.app[0].leave 10.5
param **.ppp[*].ppp.queue.typename "\"DropTailQueue\""
param **.tcp.typename "\"Tcp\""
param **.tcp.nagleEnabled false
param **.cli*.app[*].nPar 5
param **.cli*.app[*].fPar 0
param **.numApps 1
param **.client0.app[*].typename "\"Node\""
param **.client0.app[0].localPort 1000
param **.client0.app[0].localPortL 1234
param **.client0.app[0].connectAddress "\"\""
param **.client0.app[0].connectPort 1234
param **.client1.app[*].typename "\"Node\""
param **.client1.app[0].localPort 1001
param **.client1.app[0].localPortL 1234
param **.client1.app[0].connectAddress "\"\""
param **.client1.app[0].connectPort 1234
param **.client2.app[*].typename "\"Node\""
param **.client2.app[0].localPort 1002
param **.client2.app[0].localPortL 1234
param **.client2.app[0].connectAddress "\"\""
param **.client2.app[0].connectPort 1234
param **.client3.app[*].typename "\"Node\""
param **.client3.app[0].localPort 1003
param **.client3.app[0].localPortL 1234
param **.client3.app[0].connectAddress "\"\""
param **.client3.app[0].connectPort 1234
param **.client4.app[*].typename "\"Node\""
param **.client4.app[0].localPort 1004
param **.client4.app[0].localPortL 1234
param **.client4.app[0].connectAddress "\"\""
param **.client4.app[0].connectPort 1234
param *.configurator.dumpAddresses true
param *.configurator.dumpTopology true
param *.configurator.dumpLinks true
param *.configurator.dumpRoutes true

vector 0 scenario.client0.ppp[0].ppp transmissionState:vector ETV
attr interpolationmode sample-hold
attr source transmissionStateChanged
attr title "tx state, vector"
vector 1 scenario.client0.ppp[1].ppp transmissionState:vector ETV
attr interpolationmode sample-hold
attr source transmissionStateChanged
attr title "tx state, vector"
vector 2 scenario.client0.ppp[2].ppp transmissionState:vector ETV
attr interpolationmode sample-hold
attr source transmissionStateChanged
attr title "tx state, vector"
vector 3 scenario.client0.ppp[3].ppp transmissionState:vector ETV
attr interpolationmode sample-hold
attr source transmissionStateChanged
attr title "tx state, vector"
vector 4 scenario.client1.ppp[0].ppp transmissionState:vector ETV
attr interpolationmode sample-hold
attr source transmissionStateChanged
attr title "tx state, vector"
vector 5 scenario.client1.ppp[1].ppp transmissionState:vector ETV
attr interpolationmode sample-hold
attr source transmissionStateChanged
attr title "tx state, vector"
vector 6 scenario.client1.ppp[2].ppp transmissionState:vector ETV
attr interpolationmode sample-hold
attr source transmissionStateChanged
attr title "tx state, vector"
vector 7 scenario.client1.ppp[3].ppp transmissionState:vector ETV
attr interpolationmode sample-hold
attr source transmissionStateChanged
attr title "tx state, vector"
vector 8 scenario.client2.ppp[0].ppp transmissionState:vector ETV
attr interpolationmode sample-hold
attr source transmissionStateChanged
attr title "tx state, vector"
vector 9 scenario.client2.ppp[1].ppp transmissionState:vector ETV
attr interpolationmode sample-hold
attr source transmissionStateChanged
attr title "tx state, vector"
vector 10 scenario.client2.ppp[2].ppp transmissionState:vector ETV
attr interpolationmode sample-hold
attr source transmissionStateChanged
attr title "tx state, vector"
vector 11 scenario.client2.ppp[3].ppp transmissionState:vector ETV
attr interpolationmode sample-hold
attr source transmissionStateChanged
attr title "tx state, vector"
vector 12 scenario.client3.ppp[0].ppp transmissionState:vector ETV
attr interpolationmode sample-hold
attr source transmissionStateChanged
attr title "tx state, vector"
vector 13 scenario.client3.ppp[1].ppp transmissionState:vector ETV
attr interpolationmode sample-hold
attr source transmissionStateChanged
attr title "tx state, vector"
vector 14 scenario.client3.ppp[2].ppp transmissionState:vector ETV
attr interpolationmode sample-hold
attr source transmissionStateChanged
attr title "tx state, vector"
vector 15 scenario.client3.ppp[3].ppp transmissionState:vector ETV
attr interpolationmode sample-hold
attr source transmissionStateChanged
attr title "tx state, vector"
vector 16 scenario.client4.ppp[0].ppp transmissionState:vector ETV
attr interpolationmode sample-hold
attr source transmissionStateChanged
attr title "tx state, vector"
vector 17 scenario.client4.ppp[1].ppp transmissionState:vector ETV
attr interpolationmode sample-hold
attr source transmissionStateChanged
attr title "tx state, vector"
vector 18 scenario.client4.ppp[2].ppp transmissionState:vector ETV
attr interpolationmode sample-hold
attr source transmissionStateChanged
attr title "tx state, vector"
vector 19 scenario.client4.ppp[3].ppp transmissionState:vector ETV
attr interpolationmode sample-hold
attr source transmissionStateChanged
attr title "tx state, vector"
vector 20 scenario.client1.tcp.conn-25 tcpRcvQueueBytes:vector ETV
attr interpolationmode sample-hold
vector 21 scenario.client1.tcp.conn-25 rcvAdv:vector ETV
attr interpolationmode sample-hold
vector 22 scenario.client1.tcp.conn-25 rcvWnd:vector ETV
attr interpolationmode sample-hold
vector 23 scenario.client1.tcp.conn-25 sndAck:vector ETV
attr interpolationmode sample-hold
vector 24 scenario.client1.ppp[1].ppp rcvdPkFromHl:vector(packetBytes) ETV
attr interpolationmode none
attr source packetReceivedFromUpper
attr title "packets received from higher layer, vector(packetBytes)"
vector 25 scenario.client1.ppp[1].ppp.queue packetPushed:vector(packetBytes) ETV
attr interpolationmode none
attr title "packet pushed, vector(packetBytes)"
vector 26 scenario.client1.ppp[1].ppp.queue queueLength:vector ETV
attr interpolationmode sample-hold
attr source "count(packetPushed) - count(packetPopped) - count(packetRemoved) - count(packetDropped)"
attr title "queue length, vector"
vector 27 scenario.client1.ppp[1].ppp.queue packetPopped:vector(packetBytes) ETV
attr interpolationmode none
attr title "packet popped, vector(packetBytes)"
vector 28 scenario.client1.ppp[1].ppp.queue queueingTime:vector ETV
attr interpolationmode none
attr source queueingTime(packetPopped)
attr title "queueing times, vector"
attr unit s
vector 29 scenario.client1.ppp[1].ppp txPk:vector(packetBytes) ETV
attr interpolationmode none
attr source packetSentToLower
attr title "packets transmitted, vector(packetBytes)"
vector 30 scenario.client2.ppp[1].ppp rxPkOk:vector(packetBytes) ETV
attr interpolationmode none
attr source rxPkOk
attr title "packets received OK, vector(packetBytes)"
vector 31 scenario.client2.ppp[1].ppp passedUpPk:vector(packetBytes) ETV
attr interpolationmode none
attr source packetSentToUpper
attr title "packets passed to higher layer, vector(packetBytes)"
vector 32 scenario.client2.tcp.conn-2 rcvSeq:vector ETV
attr interpolationmode sample-hold
vector 33 scenario.client2.tcp.conn-2 rcvAck:vector ETV
attr interpolationmode sample-hold
vector 34 scenario.client2.tcp.conn-26 rcvAdv:vector ETV
attr interpolationmode sample-hold
vector 35 scenario.client2.tcp.conn-26 sndWnd:vector ETV
attr interpolationmode sample-hold
vector 36 scenario.client2.tcp.conn-26 tcpRcvQueueBytes:vector ETV
attr interpolationmode sample-hold
vector 37 scenario.client2.tcp.conn-26 rcvWnd:vector ETV
attr interpolationmode sample-hold
vector 38 scenario.client2.tcp.conn-26 sndAck:vector ETV
attr interpolationmode sample-hold
vector 39 scenario.client2.ppp[1].ppp rcvdPkFromHl:vector(packetBytes) ETV
attr interpolationmode none
attr source packetReceivedFromUpper
attr title "packets received from higher layer, vector(packetBytes)"
vector 40 scenario.client2.ppp[1].ppp.queue packetPushed:vector(packetBytes) ETV
attr interpolationmode none
attr title "packet pushed, vector(packetBytes)"
vector 41 scenario.client2.ppp[1].ppp.queue queueLength:vector ETV
attr interpolationmode sample-hold
attr source "count(packetPushed) - count(packetPopped) - count(packetRemoved) - count(packetDropped)"
attr title "queue length, vector"
vector 42 scenario.client2.ppp[1].ppp.queue packetPopped:vector(packetBytes) ETV
attr interpolationmode none
attr title "packet popped, vector(packetBytes)"
vector 43 scenario.client2.ppp[1].ppp.queue queueingTime:vector ETV
attr interpolationmode none
attr source queueingTime(packetPopped)
attr title "queueing times, vector"
attr unit s
vector 44 scenario.client2.ppp[1].ppp txPk:vector(packetBytes) ETV
attr interpolationmode none
attr source packetSentToLower
attr title "packets transmitted, vector(packetBytes)"
vector 45 scenario.client1.ppp[1].ppp rxPkOk:vector(packetBytes) ETV
attr interpolationmode none
attr source rxPkOk
attr title "packets received OK, vector(packetBytes)"
vector 46 scenario.client1.ppp[1].ppp passedUpPk:vector(packetBytes) ETV
attr interpolationmode none
attr source packetSentToUpper
attr title "packets passed to higher layer, vector(packetBytes)"
vector 47 scenario.client1.tcp.conn-25 rcvSeq:vector ETV
attr interpolationmode sample-hold
vector 48 scenario.client1.tcp.conn-25 rcvAck:vector ETV
attr interpolationmode sample-hold
vector 49 scenario.client1.tcp.conn-25 sndWnd:vector ETV
attr interpolationmode sample-hold
vector 50 scenario.client1.tcp.conn-25 unacked:vector ETV
attr interpolationmode sample-hold
vector 51 scenario.client2.tcp.conn-26 rcvSeq:vector ETV
attr interpolationmode sample-hold
vector 52 scenario.client2.tcp.conn-26 rcvAck:vector ETV
attr interpolationmode sample-hold
vector 53 scenario.client2.tcp.conn-26 unacked:vector ETV
attr interpolationmode sample-hold
vector 54 scenario.client2.tcp.conn-26 cwnd:vector ETV
attr interpolationmode sample-hold
vector 55 scenario.client2.tcp.conn-26 ssthresh:vector ETV
attr interpolationmode sample-hold
vector 56 scenario.client2.tcp.conn-26 dupAcks:vector ETV
attr interpolationmode sample-hold
vector 57 scenario.client1.tcp.conn-25 rtt:vector ETV
attr interpolationmode sample-hold
vector 58 scenario.client1.tcp.conn-25 srtt:vector ETV
attr interpolationmode sample-hold
vector 59 scenario.client1.tcp.conn-25 rttvar:vector ETV
attr interpolationmode sample-hold
vector 60 scenario.client1.tcp.conn-25 rto:vector ETV
attr interpolationmode sample-hold
vector 61 scenario.client1.tcp.conn-25 cwnd:vector ETV
attr interpolationmode sample-hold
vector 62 scenario.client1.tcp.conn-25 ssthresh:vector ETV
attr interpolationmode sample-hold
vector 63 scenario.client1.tcp.conn-25 dupAcks:vector ETV
attr interpolationmode sample-hold
vector 64 scenario.client2.tcp.conn-27 tcpRcvQueueBytes:vector ETV
attr interpolationmode sample-hold
vector 65 scenario.client2.tcp.conn-27 rcvAdv:vector ETV
attr interpolationmode sample-hold
vector 66 scenario.client2.tcp.conn-27 rcvWnd:vector ETV
attr interpolationmode sample-hold
vector 67 scenario.client2.tcp.conn-27 sndAck:vector ETV
attr interpolationmode sample-hold
vector 68 scenario.client1.tcp.conn-1 rcvSeq:vector ETV
attr interpolationmode sample-hold
vector 69 scenario.client1.tcp.conn-1 rcvAck:vector ETV
attr interpolationmode sample-hold
vector 70 scenario.client1.tcp.conn-28 rcvAdv:vector ETV
attr interpolationmode sample-hold
vector 71 scenario.client1.tcp.conn-28 sndWnd:vector ETV
attr interpolationmode sample-hold
vector 72 scenario.client1.tcp.conn-28 tcpRcvQueueBytes:vector ETV
attr interpolationmode sample-hold
vector 73 scenario.client1.tcp.conn-28 rcvWnd:vector ETV
attr interpolationmode sample-hold
vector 74 scenario.client1.tcp.conn-28 sndAck:vector ETV
attr interpolationmode sample-hold
vector 75 scenario.client2.tcp.conn-27 rcvSeq:vector ETV
attr interpolationmode sample-hold
vector 76 scenario.client2.tcp.conn-27 rcvAck:vector ETV
attr interpolationmode sample-hold
vector 77 scenario.client2.tcp.conn-27 sndWnd:vector ETV
attr interpolationmode sample-hold
vector 78 scenario.client2.tcp.conn-27 unacked:vector ETV
attr interpolationmode sample-hold
vector 79 scenario.client1.tcp.conn-28 rcvSeq:vector ETV
attr interpolationmode sample-hold
vector 80 scenario.client1.tcp.conn-28 rcvAck:vector ETV
attr interpolationmode sample-hold
vector 81 scenario.client1.tcp.conn-28 unacked:vector ETV
attr interpolationmode sample-hold
vector 82 scenario.client1.tcp.conn-28 cwnd:vector ETV
attr interpolationmode sample-hold
vector 83 scenario.client1.tcp.conn-28 ssthresh:vector ETV
attr interpolationmode sample-hold
vector 84 scenario.client1.tcp.conn-28 dupAcks:vector ETV
attr interpolationmode sample-hold
vector 85 scenario.client2.tcp.conn-27 rtt:vector ETV
attr interpolationmode sample-hold
vector 86 scenario.client2.tcp.conn-27 srtt:vector ETV
attr interpolationmode sample-hold
vector 87 scenario.client2.tcp.conn-27 rttvar:vector ETV
attr interpolationmode sample-hold
vector 88 scenario.client2.tcp.conn-27 rto:vector ETV
attr interpolationmode sample-hold
vector 89 scenario.client2.tcp.conn-27 cwnd:vector ETV
attr interpolationmode sample-hold
vector 90 scenario.client2.tcp.conn-27 ssthresh:vector ETV
attr interpolationmode sample-hold
vector 91 scenario.client2.tcp.conn-27 dupAcks:vector ETV
attr interpolationmode sample-hold
vector 92 scenario.client1.tcp.conn-29 tcpRcvQueueBytes:vector ETV
attr interpolationmode sample-hold
vector 93 scenario.client1.tcp.conn-29 rcvAdv:vector ETV
attr interpolationmode sample-hold
vector 94 scenario.client1.tcp.conn-29 rcvWnd:vector ETV
attr interpolationmode sample-hold
vector 95 scenario.client1.tcp.conn-29 sndAck:vector ETV
attr interpolationmode sample-hold
vector 96 scenario.client1.ppp[2].ppp rcvdPkFromHl:vector(packetBytes) ETV
attr interpolationmode none
attr source packetReceivedFromUpper
attr title "packets received from higher layer, vector(packetBytes)"
vector 97 scenario.client1.ppp[2].ppp.queue packetPushed:vector(packetBytes) ETV
attr interpolationmode none
attr title "packet pushed, vector(packetBytes)"
vector 98 scenario.client1.ppp[2].ppp.queue queueLength:vector ETV
attr interpolationmode sample-hold
attr source "count(packetPushed) - count(packetPopped) - count(packetRemoved) - count(packetDropped)"
attr title "queue length, vector"
vector 99 scenario.client1.ppp[2].ppp.queue packetPopped:vector(packetBytes) ETV
attr interpolationmode none
attr title "packet popped, vector(packetBytes)"
vector 100 scenario.client1.ppp[2].ppp.queue queueingTime:vector ETV
attr interpolationmode none
attr source queueingTime(packetPopped)
attr title "queueing times, vector"
attr unit s
vector 101 scenario.client1.ppp[2].ppp txPk:vector(packetBytes) ETV
attr interpolationmode none
attr source packetSentToLower
attr title "packets transmitted, vector(packetBytes)"
vector 102 scenario.client3.ppp[1].ppp rxPkOk:vector(packetBytes) ETV
attr interpolationmode none
attr source rxPkOk
attr title "packets received OK, vector(packetBytes)"
vector 103 scenario.client3.ppp[1].ppp passedUpPk:vector(packetBytes) ETV
attr interpolationmode none
attr source packetSentToUpper
attr title "packets passed to higher layer, vector(packetBytes)"
vector 104 scenario.client3.tcp.conn-3 rcvSeq:vector ETV
attr interpolationmode sample-hold
vector 105 scenario.client3.tcp.conn-3 rcvAck:vector ETV
attr interpolationmode sample-hold
vector 106 scenario.client3.tcp.conn-30 rcvAdv:vector ETV
attr interpolationmode sample-hold
vector 107 scenario.client3.tcp.conn-30 sndWnd:vector ETV
attr interpolationmode sample-hold
vector 108 scenario.client3.tcp.conn-30 tcpRcvQueueBytes:vector ETV
attr interpolationmode sample-hold
vector 109 scenario.client3.tcp.conn-30 rcvWnd:vector ETV
attr interpolationmode sample-hold
vector 110 scenario.client3.tcp.conn-30 sndAck:vector ETV
attr interpolationmode sample-hold
vector 111 scenario.client3.ppp[1].ppp rcvdPkFromHl:vector(packetBytes) ETV
attr interpolationmode none
attr source packetReceivedFromUpper
attr title "packets received from higher layer, vector(packetBytes)"
vector 112 scenario.client3.ppp[1].ppp.queue packetPushed:vector(packetBytes) ETV
attr interpolationmode none
attr title "packet pushed, vector(packetBytes)"
vector 113 scenario.client3.ppp[1].ppp.queue queueLength:vector ETV
attr interpolationmode sample-hold
attr source "count(packetPushed) - count(packetPopped) - count(packetRemoved) - count(packetDropped)"
attr title "queue length, vector"
vector 114 scenario.client3.ppp[1].ppp.queue packetPopped:vector(packetBytes) ETV
attr interpolationmode none
attr title "packet popped, vector(packetBytes)"
vector 115 scenario.client3.ppp[1].ppp.queue queueingTime:vector ETV
attr interpolationmode none
attr source queueingTime(packetPopped)
attr title "queueing times, vector"
attr unit s
vector 116 scenario.client3.ppp[1].ppp txPk:vector(packetBytes) ETV
attr interpolationmode none
attr source packetSentToLower
attr title "packets transmitted, vector(packetBytes)"
vector 117 scenario.client1.tcp.conn-31 tcpRcvQueueBytes:vector ETV
attr interpolationmode sample-hold
vector 118 scenario.client1.tcp.conn-31 rcvAdv:vector ETV
attr interpolationmode sample-hold
vector 119 scenario.client1.tcp.conn-31 rcvWnd:vector ETV
attr interpolationmode sample-hold
vector 120 scenario.client1.tcp.conn-31 sndAck:vector ETV
attr interpolationmode sample-hold
vector 121 scenario.client1.ppp[0].ppp rcvdPkFromHl:vector(packetBytes) ETV
attr interpolationmode none
attr source packetReceivedFromUpper
attr title "packets received from higher layer, vector(packetBytes)"
vector 122 scenario.client1.ppp[0].ppp.queue packetPushed:vector(packetBytes) ETV
attr interpolationmode none
attr title "packet pushed, vector(packetBytes)"
vector 123 scenario.client1.ppp[0].ppp.queue queueLength:vector ETV
attr interpolationmode sample-hold
attr source "count(packetPushed) - count(packetPopped) - count(packetRemoved) - count(packetDropped)"
attr title "queue length, vector"
vector 124 scenario.client1.ppp[0].ppp.queue packetPopped:vector(packetBytes) ETV
attr interpolationmode none
attr title "packet popped, vector(packetBytes)"
vector 125 scenario.client1.ppp[0].ppp.queue queueingTime:vector ETV
attr interpolationmode none
attr source queueingTime(packetPopped)
attr title "queueing times, vector"
attr unit s
vector 126 scenario.client1.ppp[0].ppp txPk:vector(packetBytes) ETV
attr interpolationmode none
attr source packetSentToLower
attr title "packets transmitted, vector(packetBytes)"
vector 127 scenario.client1.ppp[2].ppp rxPkOk:vector(packetBytes) ETV
attr interpolationmode none
attr source rxPkOk
attr title "packets received OK, vector(packetBytes)"
vector 128 scenario.client1.ppp[2].ppp passedUpPk:vector(packetBytes) ETV
attr interpolationmode none
attr source packetSentToUpper
attr title "packets passed to higher layer, vector(packetBytes)"
vector 129 scenario.client1.tcp.conn-29 rcvSeq:vector ETV
attr interpolationmode sample-hold
vector 130 scenario.client1.tcp.conn-29 rcvAck:vector ETV
attr interpolationmode sample-hold
vector 131 scenario.client1.tcp.conn-29 sndWnd:vector ETV
attr interpolationmode sample-hold
vector 132 scenario.client1.tcp.conn-29 unacked:vector ETV
attr interpolationmode sample-hold
vector 133 scenario.client0.ppp[0].ppp rxPkOk:vector(packetBytes) ETV
attr interpolationmode none
attr source rxPkOk
attr title "packets received OK, vector(packetBytes)"
vector 134 scenario.client0.ppp[0].ppp passedUpPk:vector(packetBytes) ETV
attr interpolationmode none
attr source packetSentToUpper
attr title "packets passed to higher layer, vector(packetBytes)"
vector 135 scenario.client0.tcp.conn-0 rcvSeq:vector ETV
attr interpolationmode sample-hold
vector 136 scenario.client0.tcp.conn-0 rcvAck:vector ETV
attr interpolationmode sample-hold
vector 137 scenario.client0.tcp.conn-32 rcvAdv:vector ETV
attr interpolationmode sample-hold
vector 138 scenario.client0.tcp.conn-32 sndWnd:vector ETV
attr interpolationmode sample-hold
vector 139 scenario.client0.tcp.conn-32 tcpRcvQueueBytes:vector ETV
attr interpolationmode sample-hold
vector 140 scenario.client0.tcp.conn-32 rcvWnd:vector ETV
attr interpolationmode sample-hold
vector 141 scenario.client0.tcp.conn-32 sndAck:vector ETV
attr interpolationmode sample-hold
vector 142 scenario.client0.ppp[0].ppp rcvdPkFromHl:vector(packetBytes) ETV
attr interpolationmode none
attr source packetReceivedFromUpper
attr title "packets received from higher layer, vector(packetBytes)"
vector 143 scenario.client0.ppp[0].ppp.queue packetPushed:vector(packetBytes) ETV
attr interpolationmode none
attr title "packet pushed, vector(packetBytes)"
vector 144 scenario.client0.ppp[0].ppp.queue queueLength:vector ETV
attr interpolationmode sample-hold
attr source "count(packetPushed) - count(packetPopped) - count(packetRemoved) - count(packetDropped)"
attr title "queue length, vector"
vector 145 scenario.client0.ppp[0].ppp.queue packetPopped:vector(packetBytes) ETV
attr interpolationmode none
attr title "packet popped, vector(packetBytes)"
vector 146 scenario.client0.ppp[0].ppp.queue queueingTime:vector ETV
attr interpolationmode none
attr source queueingTime(packetPopped)
attr title "queueing times, vector"
attr unit s
vector 147 scenario.client0.ppp[0].ppp txPk:vector(packetBytes) ETV
attr interpolationmode none
attr source packetSentToLower
attr title "packets transmitted, vector(packetBytes)"
vector 148 scenario.client3.tcp.conn-30 rcvSeq:vector ETV
attr interpolationmode sample-hold
vector 149 scenario.client3.tcp.conn-30 rcvAck:vector ETV
attr interpolationmode sample-hold
vector 150 scenario.client3.tcp.conn-30 unacked:vector ETV
attr interpolationmode sample-hold
vector 151 scenario.client3.tcp.conn-30 cwnd:vector ETV
attr interpolationmode sample-hold
vector 152 scenario.client3.tcp.conn-30 ssthresh:vector ETV
attr interpolationmode sample-hold
vector 153 scenario.client3.tcp.conn-30 dupAcks:vector ETV
attr interpolationmode sample-hold
vector 154 scenario.client1.ppp[0].ppp rxPkOk:vector(packetBytes) ETV
attr interpolationmode none
attr source rxPkOk
attr title "packets received OK, vector(packetBytes)"
vector 155 scenario.client1.ppp[0].ppp passedUpPk:vector(packetBytes) ETV
attr interpolationmode none
attr source packetSentToUpper
attr title "packets passed to higher layer, vector(packetBytes)"
vector 156 scenario.client1.tcp.conn-31 rcvSeq:vector ETV
attr interpolationmode sample-hold
vector 157 scenario.client1.tcp.conn-31 rcvAck:vector ETV
attr interpolationmode sample-hold
vector 158 scenario.client1.tcp.conn-31 sndWnd:vector ETV
attr interpolationmode sample-hold
vector 159 scenario.client1.tcp.conn-31 unacked:vector ETV
attr interpolationmode sample-hold
vector 160 scenario.client1.tcp.conn-29 rtt:vector ETV
attr interpolationmode sample-hold
vector 161 scenario.client1.tcp.conn-29 srtt:vector ETV
attr interpolationmode sample-hold
vector 162 scenario.client1.tcp.conn-29 rttvar:vector ETV
attr interpolationmode sample-hold
vector 163 scenario.client1.tcp.conn-29 rto:vector ETV
attr interpolationmode sample-hold
vector 164 scenario.client1.tcp.conn-29 cwnd:vector ETV
attr interpolationmode sample-hold
vector 165 scenario.client1.tcp.conn-29 ssthresh:vector ETV
attr interpolationmode sample-hold
vector 166 scenario.client1.tcp.conn-29 dupAcks:vector ETV
attr interpolationmode sample-hold
vector 167 scenario.client0.tcp.conn-32 rcvSeq:vector ETV
attr interpolationmode sample-hold
vector 168 scenario.client0.tcp.conn-32 rcvAck:vector ETV
attr interpolationmode sample-hold
vector 169 scenario.client0.tcp.conn-32 unacked:vector ETV
attr interpolationmode sample-hold
vector 170 scenario.client0.tcp.conn-32 cwnd:vector ETV
attr interpolationmode sample-hold
vector 171 scenario.client0.tcp.conn-32 ssthresh:vector ETV
attr interpolationmode sample-hold
vector 172 scenario.client0.tcp.conn-32 dupAcks:vector ETV
attr interpolationmode sample-hold
vector 173 scenario.client1.tcp.conn-31 rtt:vector ETV
attr interpolationmode sample-hold
vector 174 scenario.client1.tcp.conn-31 srtt:vector ETV
attr interpolationmode sample-hold
vector 175 scenario.client1.tcp.conn-31 rttvar:vector ETV
attr interpolationmode sample-hold
vector 176 scenario.client1.tcp.conn-31 rto:vector ETV
attr interpolationmode sample-hold
vector 177 scenario.client1.tcp.conn-31 cwnd:vector ETV
attr interpolationmode sample-hold
vector 178 scenario.client1.tcp.conn-31 ssthresh:vector ETV
attr interpolationmode sample-hold
vector 179 scenario.client1.tcp.conn-31 dupAcks:vector ETV
attr interpolationmode sample-hold
vector 180 scenario.client3.tcp.conn-33 tcpRcvQueueBytes:vector ETV
attr interpolationmode sample-hold
vector 181 scenario.client3.tcp.conn-33 rcvAdv:vector ETV
attr interpolationmode sample-hold
vector 182 scenario.client3.tcp.conn-33 rcvWnd:vector ETV
attr interpolationmode sample-hold
vector 183 scenario.client3.tcp.conn-33 sndAck:vector ETV
attr interpolationmode sample-hold
vector 184 scenario.client1.tcp.conn-34 rcvAdv:vector ETV
attr interpolationmode sample-hold
vector 185 scenario.client1.tcp.conn-34 sndWnd:vector ETV
attr interpolationmode sample-hold
vector 186 scenario.client1.tcp.conn-34 tcpRcvQueueBytes:vector ETV
attr interpolationmode sample-hold
vector 187 scenario.client1.tcp.conn-34 rcvWnd:vector ETV
attr interpolationmode sample-hold
vector 188 scenario.client1.tcp.conn-34 sndAck:vector ETV
attr interpolationmode sample-hold
vector 189 scenario.client3.tcp.conn-33 rcvSeq:vector ETV
attr interpolationmode sample-hold
vector 190 scenario.client3.tcp.conn-33 rcvAck:vector ETV
attr interpolationmode sample-hold
vector 191 scenario.client3.tcp.conn-33 sndWnd:vector ETV
attr interpolationmode sample-hold
vector 192 scenario.client3.tcp.conn-33 unacked:vector ETV
attr interpolationmode sample-hold
vector 193 scenario.client1.tcp.conn-34 rcvSeq:vector ETV
attr interpolationmode sample-hold
vector 194 scenario.client1.tcp.conn-34 rcvAck:vector ETV
attr interpolationmode sample-hold
vector 195 scenario.client1.tcp.conn-34 unacked:vector ETV
attr interpolationmode sample-hold
vector 196 scenario.client1.tcp.conn-34 cwnd:vector ETV
attr interpolationmode sample-hold
vector 197 scenario.client1.tcp.conn-34 ssthresh:vector ETV
attr interpolationmode sample-hold
vector 198 scenario.client1.tcp.conn-34 dupAcks:vector ETV
attr interpolationmode sample-hold
vector 199 scenario.client3.tcp.conn-33 rtt:vector ETV
attr interpolationmode sample-hold
vector 200 scenario.client3.tcp.conn-33 srtt:vector ETV
attr interpolationmode sample-hold
vector 201 scenario.client3.tcp.conn-33 rttvar:vector ETV
attr interpolationmode sample-hold
vector 202 scenario.client3.tcp.conn-33 rto:vector ETV
attr interpolationmode sample-hold
vector 203 scenario.client3.tcp.conn-33 cwnd:vector ETV
attr interpolationmode sample-hold
vector 204 scenario.client3.tcp.conn-33 ssthresh:vector ETV
attr interpolationmode sample-hold
vector 205 scenario.client3.tcp.conn-33 dupAcks:vector ETV
attr interpolationmode sample-hold
vector 206 scenario.client0.tcp.conn-35 tcpRcvQueueBytes:vector ETV
attr interpolationmode sample-hold
vector 207 scenario.client0.tcp.conn-35 rcvAdv:vector ETV
attr interpolationmode sample-hold
vector 208 scenario.client0.tcp.conn-35 rcvWnd:vector ETV
attr interpolationmode sample-hold
vector 209 scenario.client0.tcp.conn-35 sndAck:vector ETV
attr interpolationmode sample-hold
vector 210 scenario.client1.tcp.conn-36 rcvAdv:vector ETV
attr interpolationmode sample-hold
vector 211 scenario.client1.tcp.conn-36 sndWnd:vector ETV
attr interpolationmode sample-hold
vector 212 scenario.client1.tcp.conn-36 tcpRcvQueueBytes:vector ETV
attr interpolationmode sample-hold
vector 213 scenario.client1.tcp.conn-36 rcvWnd:vector ETV
attr interpolationmode sample-hold
vector 214 scenario.client1.tcp.conn-36 sndAck:vector ETV
attr interpolationmode sample-hold
vector 215 scenario.client0.tcp.conn-35 rcvSeq:vector ETV
attr interpolationmode sample-hold
vector 216 scenario.client0.tcp.conn-35 rcvAck:vector ETV
attr interpolationmode sample-hold
vector 217 scenario.client0.tcp.conn-35 sndWnd:vector ETV
attr interpolationmode sample-hold
vector 218 scenario.client0.tcp.conn-35 unacked:vector ETV
attr interpolationmode sample-hold
vector 219 scenario.client1.tcp.conn-36 rcvSeq:vector ETV
attr interpolationmode sample-hold
vector 220 scenario.client1.tcp.conn-36 rcvAck:vector ETV
attr interpolationmode sample-hold
vector 221 scenario.client1.tcp.conn-36 unacked:vector ETV
attr interpolationmode sample-hold
vector 222 scenario.client1.tcp.conn-36 cwnd:vector ETV
attr interpolationmode sample-hold
vector 223 scenario.client1.tcp.conn-36 ssthresh:vector ETV
attr interpolationmode sample-hold
vector 224 scenario.client1.tcp.conn-36 dupAcks:vector ETV
attr interpolationmode sample-hold
vector 225 scenario.client0.tcp.conn-35 rtt:vector ETV
attr interpolationmode sample-hold
vector 226 scenario.client0.tcp.conn-35 srtt:vector ETV
attr interpolationmode sample-hold
vector 227 scenario.client0.tcp.conn-35 rttvar:vector ETV
attr interpolationmode sample-hold
vector 228 scenario.client0.tcp.conn-35 rto:vector ETV
attr interpolationmode sample-hold
vector 229 scenario.client0.tcp.conn-35 cwnd:vector ETV
attr interpolationmode sample-hold
vector 230 scenario.client0.tcp.conn-35 ssthresh:vector ETV
attr interpolationmode sample-hold
vector 231 scenario.client0.tcp.conn-35 dupAcks:vector ETV
attr interpolationmode sample-hold
vector 232 scenario.client0.tcp.conn-37 tcpRcvQueueBytes:vector ETV
attr interpolationmode sample-hold
vector 233 scenario.client0.tcp.conn-37 rcvAdv:vector ETV
attr interpolationmode sample-hold
vector 234 scenario.client0.tcp.conn-37 rcvWnd:vector ETV
attr interpolationmode sample-hold
vector 235 scenario.client0.tcp.conn-37 sndAck:vector ETV
attr interpolationmode sample-hold
vector 236 scenario.client0.ppp[2].ppp rcvdPkFromHl:vector(packetBytes) ETV
attr interpolationmode none
attr source packetReceivedFromUpper
attr title "packets received from higher layer, vector(packetBytes)"
vector 237 scenario.client0.ppp[2].ppp.queue packetPushed:vector(packetBytes) ETV
attr interpolationmode none
attr title "packet pushed, vector(packetBytes)"
vector 238 scenario.client0.ppp[2].ppp.queue queueLength:vector ETV
attr interpolationmode sample-hold
attr source "count(packetPushed) - count(packetPopped) - count(packetRemoved) - count(packetDropped)"
attr title "queue length, vector"
vector 239 scenario.client0.ppp[2].ppp.queue packetPopped:vector(packetBytes) ETV
attr interpolationmode none
attr title "packet popped, vector(packetBytes)"
vector 240 scenario.client0.ppp[2].ppp.queue queueingTime:vector ETV
attr interpolationmode none
attr source queueingTime(packetPopped)
attr title "queueing times, vector"
attr unit s
vector 241 scenario.client0.ppp[2].ppp txPk:vector(packetBytes) ETV
attr interpolationmode none
attr source packetSentToLower
attr title "packets transmitted, vector(packetBytes)"
vector 242 scenario.client3.ppp[0].ppp rxPkOk:vector(packetBytes) ETV
attr interpolationmode none
attr source rxPkOk
attr title "packets received OK, vector(packetBytes)"
vector 243 scenario.client3.ppp[0].ppp passedUpPk:vector(packetBytes) ETV
attr interpolationmode none
attr source packetSentToUpper
attr title "packets passed to higher layer, vector(packetBytes)"
vector 244 scenario.client3.tcp.conn-38 rcvAdv:vector ETV
attr interpolationmode sample-hold
vector 245 scenario.client3.tcp.conn-38 sndWnd:vector ETV
attr interpolationmode sample-hold
vector 246 scenario.client3.tcp.conn-38 tcpRcvQueueBytes:vector ETV
attr interpolationmode sample-hold
vector 247 scenario.client3.tcp.conn-38 rcvWnd:vector ETV
attr interpolationmode sample-hold
vector 248 scenario.client3.tcp.conn-38 sndAck:vector ETV
attr interpolationmode sample-hold
vector 249 scenario.client3.ppp[0].ppp rcvdPkFromHl:vector(packetBytes) ETV
attr interpolationmode none
attr source packetReceivedFromUpper
attr title "packets received from higher layer, vector(packetBytes)"
vector 250 scenario.client3.ppp[0].ppp.queue packetPushed:vector(packetBytes) ETV
attr interpolationmode none
attr title "packet pushed, vector(packetBytes)"
vector 251 scenario.client3.ppp[0].ppp.queue queueLength:vector ETV
attr interpolationmode sample-hold
attr source "count(packetPushed) - count(packetPopped) - count(packetRemoved) - count(packetDropped)"
attr title "queue length, vector"
vector 252 scenario.client3.ppp[0].ppp.queue packetPopped:vector(packetBytes) ETV
attr interpolationmode none
attr title "packet popped, vector(packetBytes)"
vector 253 scenario.client3.ppp[0].ppp.queue queueingTime:vector ETV
attr interpolationmode none
attr source queueingTime(packetPopped)
attr title "queueing times, vector"
attr unit s
vector 254 scenario.client3.ppp[0].ppp txPk:vector(packetBytes) ETV
attr interpolationmode none
attr source packetSentToLower
attr title "packets transmitted, vector(packetBytes)"
vector 255 scenario.client0.ppp[2].ppp rxPkOk:vector(packetBytes) ETV
attr interpolationmode none
attr source rxPkOk
attr title "packets received OK, vector(packetBytes)"
vector 256 scenario.client0.ppp[2].ppp passedUpPk:vector(packetBytes) ETV
attr interpolationmode none
attr source packetSentToUpper
attr title "packets passed to higher layer, vector(packetBytes)"
vector 257 scenario.client0.tcp.conn-37 rcvSeq:vector ETV
attr interpolationmode sample-hold
vector 258 scenario.client0.tcp.conn-37 rcvAck:vector ETV
attr interpolationmode sample-hold
vector 259 scenario.client0.tcp.conn-37 sndWnd:vector ETV
attr interpolationmode sample-hold
vector 260 scenario.client0.tcp.conn-37 unacked:vector ETV
attr interpolationmode sample-hold
vector 261 scenario.client3.tcp.conn-38 rcvSeq:vector ETV
attr interpolationmode sample-hold
vector 262 scenario.client3.tcp.conn-38 rcvAck:vector ETV
attr interpolationmode sample-hold
vector 263 scenario.client3.tcp.conn-38 unacked:vector ETV
attr interpolationmode sample-hold
vector 264 scenario.client3.tcp.conn-38 cwnd:vector ETV
attr interpolationmode sample-hold
vector 265 scenario.client3.tcp.conn-38 ssthresh:vector ETV
attr interpolationmode sample-hold
vector 266 scenario.client3.tcp.conn-38 dupAcks:vector ETV
attr interpolationmode sample-hold
vector 267 scenario.client0.tcp.conn-37 rtt:vector ETV
attr interpolationmode sample-hold
vector 268 scenario.client0.tcp.conn-37 srtt:vector ETV
attr interpolationmode sample-hold
vector 269 scenario.client0.tcp.conn-37 rttvar:vector ETV
attr interpolationmode sample-hold
vector 270 scenario.client0.tcp.conn-37 rto:vector ETV
attr interpolationmode sample-hold
vector 271 scenario.client0.tcp.conn-37 cwnd:vector ETV
attr interpolationmode sample-hold
vector 272 scenario.client0.tcp.conn-37 ssthresh:vector ETV
attr interpolationmode sample-hold
vector 273 scenario.client0.tcp.conn-37 dupAcks:vector ETV
attr interpolationmode sample-hold
vector 274 scenario.client3.tcp.conn-39 tcpRcvQueueBytes:vector ETV
attr interpolationmode sample-hold
vector 275 scenario.client3.tcp.conn-39 rcvAdv:vector ETV
attr interpolationmode sample-hold
vector 276 scenario.client3.tcp.conn-39 rcvWnd:vector ETV
attr interpolationmode sample-hold
vector 277 scenario.client3.tcp.conn-39 sndAck:vector ETV
attr interpolationmode sample-hold
vector 278 scenario.client3.ppp[2].ppp rcvdPkFromHl:vector(packetBytes) ETV
attr interpolationmode none
attr source packetReceivedFromUpper
attr title "packets received from higher layer, vector(packetBytes)"
vector 279 scenario.client3.ppp[2].ppp.queue packetPushed:vector(packetBytes) ETV
attr interpolationmode none
attr title "packet pushed, vector(packetBytes)"
vector 280 scenario.client3.ppp[2].ppp.queue queueLength:vector ETV
attr interpolationmode sample-hold
attr source "count(packetPushed) - count(packetPopped) - count(packetRemoved) - count(packetDropped)"
attr title "queue length, vector"
vector 281 scenario.client3.ppp[2].ppp.queue packetPopped:vector(packetBytes) ETV
attr interpolationmode none
attr title "packet popped, vector(packetBytes)"
vector 282 scenario.client3.ppp[2].ppp.queue queueingTime:vector ETV
attr interpolationmode none
attr source queueingTime(packetPopped)
attr title "queueing times, vector"
attr unit s
vector 283 scenario.client3.ppp[2].ppp txPk:vector(packetBytes) ETV
attr interpolationmode none
attr source packetSentToLower
attr title "packets transmitted, vector(packetBytes)"
vector 284 scenario.client2.ppp[2].ppp rxPkOk:vector(packetBytes) ETV
attr interpolationmode none
attr source rxPkOk
attr title "packets received OK, vector(packetBytes)"
vector 285 scenario.client2.ppp[2].ppp passedUpPk:vector(packetBytes) ETV
attr interpolationmode none
attr source packetSentToUpper
attr title "packets passed to higher layer, vector(packetBytes)"
vector 286 scenario.client2.tcp.conn-40 rcvAdv:vector ETV
attr interpolationmode sample-hold
vector 287 scenario.client2.tcp.conn-40 sndWnd:vector ETV
attr interpolationmode sample-hold
vector 288 scenario.client2.tcp.conn-40 tcpRcvQueueBytes:vector ETV
attr interpolationmode sample-hold
vector 289 scenario.client2.tcp.conn-40 rcvWnd:vector ETV
attr interpolationmode sample-hold
vector 290 scenario.client2.tcp.conn-40 sndAck:vector ETV
attr interpolationmode sample-hold
vector 291 scenario.client2.ppp[2].ppp rcvdPkFromHl:vector(packetBytes) ETV
attr interpolationmode none
attr source packetReceivedFromUpper
attr title "packets received from higher layer, vector(packetBytes)"
vector 292 scenario.client2.ppp[2].ppp.queue packetPushed:vector(packetBytes) ETV
attr interpolationmode none
attr title "packet pushed, vector(packetBytes)"
vector 293 scenario.client2.ppp[2].ppp.queue queueLength:vector ETV
attr interpolationmode sample-hold
attr source "count(packetPushed) - count(packetPopped) - count(packetRemoved) - count(packetDropped)"
attr title "queue length, vector"
vector 294 scenario.client2.ppp[2].ppp.queue packetPopped:vector(packetBytes) ETV
attr interpolationmode none
attr title "packet popped, vector(packetBytes)"
vector 295 scenario.client2.ppp[2].ppp.queue queueingTime:vector ETV
attr interpolationmode none
attr source queueingTime(packetPopped)
attr title "queueing times, vector"
attr unit s
vector 296 scenario.client2.ppp[2].ppp txPk:vector(packetBytes) ETV
attr interpolationmode none
attr source packetSentToLower
attr title "packets transmitted, vector(packetBytes)"
vector 297 scenario.client3.ppp[2].ppp rxPkOk:vector(packetBytes) ETV
attr interpolationmode none
attr source rxPkOk
attr title "packets received OK, vector(packetBytes)"
vector 298 scenario.client3.ppp[2].ppp passedUpPk:vector(packetBytes) ETV
attr interpolationmode none
attr source packetSentToUpper
attr title "packets passed to higher layer, vector(packetBytes)"
vector 299 scenario.client3.tcp.conn-39 rcvSeq:vector ETV
attr interpolationmode sample-hold
vector 300 scenario.client3.tcp.conn-39 rcvAck:vector ETV
attr interpolationmode sample-hold
vector 301 scenario.client3.tcp.conn-39 sndWnd:vector ETV
attr interpolationmode sample-hold
vector 302 scenario.client3.tcp.conn-39 unacked:vector ETV
attr interpolationmode sample-hold
vector 303 scenario.client2.tcp.conn-40 rcvSeq:vector ETV
attr interpolationmode sample-hold
vector 304 scenario.client2.tcp.conn-40 rcvAck:vector ETV
attr interpolationmode sample-hold
vector 305 scenario.client2.tcp.conn-40 unacked:vector ETV
attr interpolationmode sample-hold
vector 306 scenario.client2.tcp.conn-40 cwnd:vector ETV
attr interpolationmode sample-hold
vector 307 scenario.client2.tcp.conn-40 ssthresh:vector ETV
attr interpolationmode sample-hold
vector 308 scenario.client2.tcp.conn-40 dupAcks:vector ETV
attr interpolationmode sample-hold
vector 309 scenario.client3.tcp.conn-39 rtt:vector ETV
attr interpolationmode sample-hold
vector 310 scenario.client3.tcp.conn-39 srtt:vector ETV
attr interpolationmode sample-hold
vector 311 scenario.client3.tcp.conn-39 rttvar:vector ETV
attr interpolationmode sample-hold
vector 312 scenario.client3.tcp.conn-39 rto:vector ETV
attr interpolationmode sample-hold
vector 313 scenario.client3.tcp.conn-39 cwnd:vector ETV
attr interpolationmode sample-hold
vector 314 scenario.client3.tcp.conn-39 ssthresh:vector ETV
attr interpolationmode sample-hold
vector 315 scenario.client3.tcp.conn-39 dupAcks:vector ETV
attr interpolationmode sample-hold
vector 316 scenario.client2.tcp.conn-41 tcpRcvQueueBytes:vector ETV
attr interpolationmode sample-hold
vector 317 scenario.client2.tcp.conn-41 rcvAdv:vector ETV
attr interpolationmode sample-hold
vector 318 scenario.client2.tcp.conn-41 rcvWnd:vector ETV
attr interpolationmode sample-hold
vector 319 scenario.client2.tcp.conn-41 sndAck:vector ETV
attr interpolationmode sample-hold
vector 320 scenario.client2.ppp[0].ppp rcvdPkFromHl:vector(packetBytes) ETV
attr interpolationmode none
attr source packetReceivedFromUpper
attr title "packets received from higher layer, vector(packetBytes)"
vector 321 scenario.client2.ppp[0].ppp.queue packetPushed:vector(packetBytes) ETV
attr interpolationmode none
attr title "packet pushed, vector(packetBytes)"
vector 322 scenario.client2.ppp[0].ppp.queue queueLength:vector ETV
attr interpolationmode sample-hold
attr source "count(packetPushed) - count(packetPopped) - count(packetRemoved) - count(packetDropped)"
attr title "queue length, vector"
vector 323 scenario.client2.ppp[0].ppp.queue packetPopped:vector(packetBytes) ETV
attr interpolationmode none
attr title "packet popped, vector(packetBytes)"
vector 324 scenario.client2.ppp[0].ppp.queue queueingTime:vector ETV
attr interpolationmode none
attr source queueingTime(packetPopped)
attr title "queueing times, vector"
attr unit s
vector 325 scenario.client2.ppp[0].ppp txPk:vector(packetBytes) ETV
attr interpolationmode none
attr source packetSentToLower
attr title "packets transmitted, vector(packetBytes)"
vector 326 scenario.client0.ppp[1].ppp rxPkOk:vector(packetBytes) ETV
attr interpolationmode none
attr source rxPkOk
attr title "packets received OK, vector(packetBytes)"
vector 327 scenario.client0.ppp[1].ppp passedUpPk:vector(packetBytes) ETV
attr interpolationmode none
attr source packetSentToUpper
attr title "packets passed to higher layer, vector(packetBytes)"
vector 328 scenario.client0.tcp.conn-42 rcvAdv:vector ETV
attr interpolationmode sample-hold
vector 329 scenario.client0.tcp.conn-42 sndWnd:vector ETV
attr interpolationmode sample-hold
vector 330 scenario.client0.tcp.conn-42 tcpRcvQueueBytes:vector ETV
attr interpolationmode sample-hold
vector 331 scenario.client0.tcp.conn-42 rcvWnd:vector ETV
attr interpolationmode sample-hold
vector 332 scenario.client0.tcp.conn-42 sndAck:vector ETV
attr interpolationmode sample-hold
vector 333 scenario.client0.ppp[1].ppp rcvdPkFromHl:vector(packetBytes) ETV
attr interpolationmode none
attr source packetReceivedFromUpper
attr title "packets received from higher layer, vector(packetBytes)"
vector 334 scenario.client0.ppp[1].ppp.queue packetPushed:vector(packetBytes) ETV
attr interpolationmode none
attr title "packet pushed, vector(packetBytes)"
vector 335 scenario.client0.ppp[1].ppp.queue queueLength:vector ETV
attr interpolationmode sample-hold
attr source "count(packetPushed) - count(packetPopped) - count(packetRemoved) - count(packetDropped)"
attr title "queue length, vector"
vector 336 scenario.client0.ppp[1].ppp.queue packetPopped:vector(packetBytes) ETV
attr interpolationmode none
attr title "packet popped, vector(packetBytes)"
vector 337 scenario.client0.ppp[1].ppp.queue queueingTime:vector ETV
attr interpolationmode none
attr source queueingTime(packetPopped)
attr title "queueing times, vector"
attr unit s
vector 338 scenario.client0.ppp[1].ppp txPk:vector(packetBytes) ETV
attr interpolationmode none
attr source packetSentToLower
attr title "packets transmitted, vector(packetBytes)"
vector 339 scenario.client2.ppp[0].ppp rxPkOk:vector(packetBytes) ETV
attr interpolationmode none
attr source rxPkOk
attr title "packets received OK, vector(packetBytes)"
vector 340 scenario.client2.ppp[0].ppp passedUpPk:vector(packetBytes) ETV
attr interpolationmode none
attr source packetSentToUpper
attr title "packets passed to higher layer, vector(packetBytes)"
vector 341 scenario.client2.tcp.conn-41 rcvSeq:vector ETV
attr interpolationmode sample-hold
vector 342 scenario.client2.tcp.conn-41 rcvAck:vector ETV
attr interpolationmode sample-hold
vector 343 scenario.client2.tcp.conn-41 sndWnd:vector ETV
attr interpolationmode sample-hold
vector 344 scenario.client2.tcp.conn-41 unacked:vector ETV
attr interpolationmode sample-hold
vector 345 scenario.client0.tcp.conn-42 rcvSeq:vector ETV
attr interpolationmode sample-hold
vector 346 scenario.client0.tcp.conn-42 rcvAck:vector ETV
attr interpolationmode sample-hold
vector 347 scenario.client0.tcp.conn-42 unacked:vector ETV
attr interpolationmode sample-hold
vector 348 scenario.client0.tcp.conn-42 cwnd:vector ETV
attr interpolationmode sample-hold
vector 349 scenario.client0.tcp.conn-42 ssthresh:vector ETV
attr interpolationmode sample-hold
vector 350 scenario.client0.tcp.conn-42 dupAcks:vector ETV
attr interpolationmode sample-hold
vector 351 scenario.client2.tcp.conn-41 rtt:vector ETV
attr interpolationmode sample-hold
vector 352 scenario.client2.tcp.conn-41 srtt:vector ETV
attr interpolationmode sample-hold
vector 353 scenario.client2.tcp.conn-41 rttvar:vector ETV
attr interpolationmode sample-hold
vector 354 scenario.client2.tcp.conn-41 rto:vector ETV
attr interpolationmode sample-hold
vector 355 scenario.client2.tcp.conn-41 cwnd:vector ETV
attr interpolationmode sample-hold
vector 356 scenario.client2.tcp.conn-41 ssthresh:vector ETV
attr interpolationmode sample-hold
vector 357 scenario.client2.tcp.conn-41 dupAcks:vector ETV
attr interpolationmode sample-hold
vector 358 scenario.client2.tcp.conn-43 tcpRcvQueueBytes:vector ETV
attr interpolationmode sample-hold
vector 359 scenario.client2.tcp.conn-43 rcvAdv:vector ETV
attr interpolationmode sample-hold
vector 360 scenario.client2.tcp.conn-43 rcvWnd:vector ETV
attr interpolationmode sample-hold
vector 361 scenario.client2.tcp.conn-43 sndAck:vector ETV
attr interpolationmode sample-hold
vector 362 scenario.client3.tcp.conn-44 rcvAdv:vector ETV
attr interpolationmode sample-hold
vector 363 scenario.client3.tcp.conn-44 sndWnd:vector ETV
attr interpolationmode sample-hold
vector 364 scenario.client3.tcp.conn-44 tcpRcvQueueBytes:vector ETV
attr interpolationmode sample-hold
vector 365 scenario.client3.tcp.conn-44 rcvWnd:vector ETV
attr interpolationmode sample-hold
vector 366 scenario.client3.tcp.conn-44 sndAck:vector ETV
attr interpolationmode sample-hold
vector 367 scenario.client2.tcp.conn-43 rcvSeq:vector ETV
attr interpolationmode sample-hold
vector 368 scenario.client2.tcp.conn-43 rcvAck:vector ETV
attr interpolationmode sample-hold
vector 369 scenario.client2.tcp.conn-43 sndWnd:vector ETV
attr interpolationmode sample-hold
vector 370 scenario.client2.tcp.conn-43 unacked:vector ETV
attr interpolationmode sample-hold
vector 371 scenario.client3.tcp.conn-44 rcvSeq:vector ETV
attr interpolationmode sample-hold
vector 372 scenario.client3.tcp.conn-44 rcvAck:vector ETV
attr interpolationmode sample-hold
vector 373 scenario.client3.tcp.conn-44 unacked:vector ETV
attr interpolationmode sample-hold
vector 374 scenario.client3.tcp.conn-44 cwnd:vector ETV
attr interpolationmode sample-hold
vector 375 scenario.client3.tcp.conn-44 ssthresh:vector ETV
attr interpolationmode sample-hold
vector 376 scenario.client3.tcp.conn-44 dupAcks:vector ETV
attr interpolationmode sample-hold
vector 377 scenario.client2.tcp.conn-43 rtt:vector ETV
attr interpolationmode sample-hold
vector 378 scenario.client2.tcp.conn-43 srtt:vector ETV
attr interpolationmode sample-hold
vector 379 scenario.client2.tcp.conn-43 rttvar:vector ETV
attr interpolationmode sample-hold
vector 380 scenario.client2.tcp.conn-43 rto:vector ETV
attr interpolationmode sample-hold
vector 381 scenario.client2.tcp.conn-43 cwnd:vector ETV
attr interpolationmode sample-hold
vector 382 scenario.client2.tcp.conn-43 ssthresh:vector ETV
attr interpolationmode sample-hold
vector 383 scenario.client2.tcp.conn-43 dupAcks:vector ETV
attr interpolationmode sample-hold
vector 384 scenario.client0.tcp.conn-45 tcpRcvQueueBytes:vector ETV
attr interpolationmode sample-hold
vector 385 scenario.client0.tcp.conn-45 rcvAdv:vector ETV
attr interpolationmode sample-hold
vector 386 scenario.client0.tcp.conn-45 rcvWnd:vector ETV
attr interpolationmode sample-hold
vector 387 scenario.client0.tcp.conn-45 sndAck:vector ETV
attr interpolationmode sample-hold
vector 388 scenario.client2.tcp.conn-46 rcvAdv:vector ETV
attr interpolationmode sample-hold
vector 389 scenario.client2.tcp.conn-46 sndWnd:vector ETV
attr interpolationmode sample-hold
vector 390 scenario.client2.tcp.conn-46 tcpRcvQueueBytes:vector ETV
attr interpolationmode sample-hold
vector 391 scenario.client2.tcp.conn-46 rcvWnd:vector ETV
attr interpolationmode sample-hold
vector 392 scenario.client2.tcp.conn-46 sndAck:vector ETV
attr interpolationmode sample-hold
vector 393 scenario.client0.tcp.conn-45 rcvSeq:vector ETV
attr interpolationmode sample-hold
vector 394 scenario.client0.tcp.conn-45 rcvAck:vector ETV
attr interpolationmode sample-hold
vector 395 scenario.client0.tcp.conn-45 sndWnd:vector ETV
attr interpolationmode sample-hold
vector 396 scenario.client0.tcp.conn-45 unacked:vector ETV
attr interpolationmode sample-hold
vector 397 scenario.client3.tcp.conn-47 tcpRcvQueueBytes:vector ETV
attr interpolationmode sample-hold
vector 398 scenario.client3.tcp.conn-47 rcvAdv:vector ETV
attr interpolationmode sample-hold
vector 399 scenario.client3.tcp.conn-47 rcvWnd:vector ETV
attr interpolationmode sample-hold
vector 400 scenario.client3.tcp.conn-47 sndAck:vector ETV
attr interpolationmode sample-hold
vector 401 scenario.client2.tcp.conn-46 rcvSeq:vector ETV
attr interpolationmode sample-hold
vector 402 scenario.client2.tcp.conn-46 rcvAck:vector ETV
attr interpolationmode sample-hold
vector 403 scenario.client2.tcp.conn-46 unacked:vector ETV
attr interpolationmode sample-hold
vector 404 scenario.client2.tcp.conn-46 cwnd:vector ETV
attr interpolationmode sample-hold
vector 405 scenario.client2.tcp.conn-46 ssthresh:vector ETV
attr interpolationmode sample-hold
vector 406 scenario.client2.tcp.conn-46 dupAcks:vector ETV
attr interpolationmode sample-hold
vector 407 scenario.client0.tcp.conn-48 rcvAdv:vector ETV
attr interpolationmode sample-hold
vector 408 scenario.client0.tcp.conn-48 sndWnd:vector ETV
attr interpolationmode sample-hold
vector 409 scenario.client0.tcp.conn-48 tcpRcvQueueBytes:vector ETV
attr interpolationmode sample-hold
vector 410 scenario.client0.tcp.conn-48 rcvWnd:vector ETV
attr interpolationmode sample-hold
vector 411 scenario.client0.tcp.conn-48 sndAck:vector ETV
attr interpolationmode sample-hold
vector 412 scenario.client0.tcp.conn-45 rtt:vector ETV
attr interpolationmode sample-hold
vector 413 scenario.client0.tcp.conn-45 srtt:vector ETV
attr interpolationmode sample-hold
vector 414 scenario.client0.tcp.conn-45 rttvar:vector ETV
attr interpolationmode sample-hold
vector 415 scenario.client0.tcp.conn-45 rto:vector ETV
attr interpolationmode sample-hold
vector 416 scenario.client0.tcp.conn-45 cwnd:vector ETV
attr interpolationmode sample-hold
vector 417 scenario.client0.tcp.conn-45 ssthresh:vector ETV
attr interpolationmode sample-hold
vector 418 scenario.client0.tcp.conn-45 dupAcks:vector ETV
attr interpolationmode sample-hold
vector 419 scenario.client3.tcp.conn-47 rcvSeq:vector ETV
attr interpolationmode sample-hold
vector 420 scenario.client3.tcp.conn-47 rcvAck:vector ETV
attr interpolationmode sample-hold
vector 421 scenario.client3.tcp.conn-47 sndWnd:vector ETV
attr interpolationmode sample-hold
vector 422 scenario.client3.tcp.conn-47 unacked:vector ETV
attr interpolationmode sample-hold
vector 423 scenario.client0.tcp.conn-48 rcvSeq:vector ETV
attr interpolationmode sample-hold
vector 424 scenario.client0.tcp.conn-48 rcvAck:vector ETV
attr interpolationmode sample-hold
vector 425 scenario.client0.tcp.conn-48 unacked:vector ETV
attr interpolationmode sample-hold
vector 426 scenario.client0.tcp.conn-48 cwnd:vector ETV
attr interpolationmode sample-hold
vector 427 scenario.client0.tcp.conn-48 ssthresh:vector ETV
attr interpolationmode sample-hold
vector 428 scenario.client0.tcp.conn-48 dupAcks:vector ETV
attr interpolationmode sample-hold
vector 429 scenario.client3.tcp.conn-47 rtt:vector ETV
attr interpolationmode sample-hold
vector 430 scenario.client3.tcp.conn-47 srtt:vector ETV
attr interpolationmode sample-hold
vector 431 scenario.client3.tcp.conn-47 rttvar:vector ETV
attr interpolationmode sample-hold
vector 432 scenario.client3.tcp.conn-47 rto:vector ETV
attr interpolationmode sample-hold
vector 433 scenario.client3.tcp.conn-47 cwnd:vector ETV
attr interpolationmode sample-hold
vector 434 scenario.client3.tcp.conn-47 ssthresh:vector ETV
attr interpolationmode sample-hold
vector 435 scenario.client3.tcp.conn-47 dupAcks:vector ETV
attr interpolationmode sample-hold
0	0	0	0
0	99	0.884510404859	1
0	101	0.884918404859	0
0	128	0.886302404859	1
0	131	0.886678404859	0
0	171	1.67889861446	1
0	172	1.67930661446	0
0	184	1.68071461446	1
0	185	1.68109861446	0
0	429	3.891384624775	1
0	430	3.891768624775	0
0	466	3.963162085513	1
0	467	3.963538085513	0
0	527	5.499098667196	1
0	528	5.499474667196	0
0	570	6.020904142217	1
0	571	6.021288142217	0
0	659	10.80809857564	1
0	660	10.80847457564	0
0	682	11.357004487075	1
0	683	11.357388487075	0
0	769	12.310585834162	1
0	770	12.310961834162	0
0	912	12.717519639515	1
0	913	12.717903639515	0
0	1077	13.101930784875	1
0	1082	13.102314784875	0
0	1132	13.129731073458	1
0	1139	13.130107073458	0
0	1139	13.130107073458	1
0	1142	13.130499073458	0
0	1186	13.136506182561	1
0	1187	13.136882182561	0
0	1371	13.292608358531	1
0	1372	13.292992358531	0
0	1414	13.294760358531	1
0	1415	13.295136358531	0
0	1597	13.384560627583	1
0	1598	13.384936627583	0
0	1627	13.400369215491	1
0	1628	13.400745215491	0
0	1650	13.43274831727	1
0	1651	13.43313231727	0
0	1747	13.469613639942	1
0	1748	13.469989639942	0
0	1860	13.605214340769	1
0	1861	13.605598340769	0
0	1905	13.630662924772	1
0	1906	13.631046924772	0
0	1920	13.636123664418	1
0	1921	13.636507664418	0
0	1942	13.642166329295	1
0	1943	13.642542329295	0
0	1957	13.670149728934	1
0	1958	13.670525728934	0
0	1987	13.720322158513	1
0	1988	13.720698158513	0
0	2100	13.789843323099	1
0	2101	13.790227323099	0
0	2197	13.830774570756	1
0	2198	13.831150570756	0
0	2280	13.884026553667	1
0	2281	13.884410553667	0
0	2400	13.95462075576	1
0	2401	13.95500475576	0
0	2415	13.958644309335	1
0	2416	13.959028309335	0
0	2449	13.961313050447	1
0	2453	13.961689050447	0
0	2535	14.029659844111	1
0	2536	14.030043844111	0
0	2572	14.038020878933	1
0	2573	14.038396878933	0
0	2625	14.074676719137	1
0	2626	14.075060719137	0
0	2647	14.088471827997	1
0	2648	14.088847827997	0
0	2692	14.16455269277	1
0	2693	14.16492869277	0
0	2734	14.21350823487	1
0	2738	14.21388423487	0
0	2815	14.275702883632	1
0	2818	14.276094883632	0
0	2985	14.334764199468	1
0	2988	14.335140199468	0
0	3024	14.361136043092	1
0	3025	14.361520043092	0
0	3189	14.636464257698	1
0	3190	14.636848257698	0
0	3219	14.686788243049	1
0	3220	14.687172243049	0
0	3241	14.710007939084	1
0	3242	14.710383939084	0
0	3339	14.875666261421	1
0	3340	14.876050261421	0
0	3412	15.087190050599	1
0	3413	15.087566050599	0
0	3473	15.924252022706	1
0	3474	15.924628022706	0
0	3539	20.728689413984	1
0	3540	20.729065413984	0
0	3580	25.681446761315	1
0	3581	25.681822761315	0
0	3606	30.306679464949	1
0	3607	30.307055464949	0
0	3642	35.049347393048	1
0	3643	35.049723393048	0
0	3683	40.711538011658	1
0	3684	40.711914011658	0
0	3739	45.948819422834	1
0	3740	45.949195422834	0
0	3775	50.836572344981	1
0	3776	50.836948344981	0
0	3816	55.88207544261	1
0	3817	55.88245144261	0
0	3842	60.359201819758	1
0	3843	60.359577819758	0
0	3878	65.361032930326	1
0	3879	65.361408930326	0
0	3934	70.622485001007	1
0	3935	70.622861001007	0
0	3960	75.090669454878	1
0	3961	75.091045454878	0
0	4011	80.533889767998	1
0	4012	80.534265767998	0
0	4037	85.310189093539	1
0	4038	85.310565093539	0
0	4093	90.88845381109	1
0	4094	90.88882981109	0
0	4129	95.949185644948	1
0	4130	95.949561644948	0
0	4155	100.021575549425	1
0	4156	100.021951549425	0
0	4211	105.75392822132	1
0	4212	105.75430422132	0
0	4247	110.198430311838	1
0	4248	110.198806311838	0
0	4273	115.041198951018	1
0	4274	115.041574951018	0
0	4329	120.645709586718	1
0	4330	120.646085586718	0
0	4350	125.234899930662	1
0	4351	125.235275930662	0
0	4391	130.632250924039	1
0	4392	130.632626924039	0
0	4447	135.842218269234	1
0	4448	135.842594269234	0
0	4483	140.505019258034	1
0	4484	140.505395258034	0
0	4509	145.025481918638	1
0	4510	145.025857918638	0
0	4550	150.086030641438	1
0	4551	150.086406641438	0
0	4601	155.426281503586	1
0	4602	155.426657503586	0
0	4642	160.337167455916	1
0	4643	160.337543455916	0
0	4668	165.397166845546	1
0	4669	165.397542845546	0
0	4719	170.698476089602	1
0	4720	170.698852089602	0
0	4760	175.298378430372	1
0	4761	175.298754430372	0
0	4786	180.006896146367	1
0	4787	180.007272146367	0
0	4837	185.015044588397	1
0	4838	185.015420588397	0
0	4878	190.401164770287	1
0	4879	190.401540770287	0
0	4904	195.351267007294	1
0	4905	195.351643007294	0
0	4940	200.119234779748	1
0	4941	200.119610779748	0
0	4981	205.45750193878	1
0	4982	205.45787793878	0
0	5037	210.594652120365	1
0	5038	210.595028120365	0
0	5058	215.947507126926	1
0	5059	215.947883126926	0
0	5099	220.757895627552	1
0	5100	220.758271627552	0
0	5140	225.860651448958	1
0	5141	225.861027448958	0
0	5191	230.949124607929	1
0	5192	230.949500607929	0
0	5217	235.126589740532	1
0	5218	235.126965740532	0
0	5258	240.348459304422	1
0	5259	240.348835304422	0
0	5294	245.687855648305	1
0	5295	245.688231648305	0
0	5335	250.330148198737	1
0	5336	250.330524198737	0
0	5391	255.936947722648	1
0	5392	255.937323722648	0
0	5412	260.64677773455	1
0	5413	260.64715373455	0
0	5453	265.624224556047	1
0	5454	265.624600556047	0
0	5509	270.849664785546	1
0	5510	270.850040785546	0
0	5530	275.892817957945	1
0	5531	275.893193957945	0
0	5586	280.852136784814	1
0	5587	280.852512784814	0
0	5627	285.596361156896	1
0	5628	285.596737156896	0
0	5648	290.041412580584	1
0	5649	290.041788580584	0
0	5704	295.556595539048	1
0	5705	295.556971539048	0
0	5745	300.845605823786	1
0	5746	300.845981823786	0
0	5781	305.916561358318	1
0	5782	305.916937358318	0
0	5807	310.162052248543	1
0	5808	310.162428248543	0
0	5848	315.24552037196	1
0	5849	315.24589637196	0
0	5899	320.553269021516	1
0	5900	320.553645021516	0
0	5925	325.552567095798	1
0	5926	325.552943095798	0
0	5981	330.616747521226	1
0	5982	330.617123521226	0
0	6017	335.86403900351	1
0	6018	335.86441500351	0
0	6043	340.434613056673	1
0	6044	340.434989056673	0
0	6099	345.52214014185	1
0	6100	345.52251614185	0
0	6135	350.509993775079	1
0	6136	350.510369775079	0
0	6176	355.860468337901	1
0	6177	355.860844337901	0
0	6202	360.095582934904	1
0	6203	360.095958934904	0
0	6253	365.412395581774	1
0	6254	365.412771581774	0
0	6279	370.321419905026	1
0	6280	370.321795905026	0
0	6320	375.309334575274	1
0	6321	375.309710575274	0
0	6356	380.027190955168	1
0	6357	380.027566955168	0
0	6397	385.024444289315	1
0	6398	385.024820289315	0
0	6438	390.706594013123	1
0	6439	390.706970013123	0
0	6474	395.118319224464	1
0	6475	395.118695224464	0
0	6530	400.468519120701	1
0	6531	400.468895120701	0
0	6556	405.14297818012	1
0	6557	405.14335418012	0
0	6592	410.422710837977	1
0	6593	410.423086837977	0
0	6633	415.36020893057	1
0	6634	415.36058493057	0
0	6689	420.395061068392	1
0	6690	420.395437068392	0
0	6710	425.43070668746	1
0	6711	425.43108268746	0
0	6751	430.37946611005	1
0	6752	430.37984211005	0
0	6792	435.730032228401	1
0	6793	435.730408228401	0
0	6843	440.632128850002	1
0	6844	440.632504850002	0
0	6869	445.447888608295	1
0	6870	445.448264608295	0
0	6910	450.814812647725	1
0	6911	450.815188647725	0
0	6946	455.126925444136	1
0	6947	455.127301444136	0
0	7002	460.092988861599	1
0	7003	460.093364861599	0
0	7043	465.796959319681	1
0	7044	465.797335319681	0
0	7064	470.595659231178	1
0	7065	470.596035231178	0
0	7105	475.361429670949	1
0	7106	475.361805670949	0
0	7146	480.142245735893	1
0	7147	480.142621735893	0
0	7197	485.391948180425	1
0	7198	485.392324180425	0
0	7223	490.643817439131	1
0	7224	490.644193439131	0
0	7279	495.987303263283	1
0	7280	495.987679263283	0
0	7300	500.084046938322	1
0	7301	500.084422938322	0
0	7356	505.853113377117	1
0	7357	505.853489377117	0
0	7397	510.486677633839	1
0	7398	510.487053633839	0
0	7418	515.258582294015	1
0	7419	515.258958294015	0
0	7474	520.775413251991	1
0	7475	520.775789251991	0
0	7515	525.026336436903	1
0	7516	525.026712436903	0
0	7551	530.932919279397	1
0	7552	530.933295279397	0
0	7592	535.21170586346	1
0	7593	535.21208186346	0
0	7633	540.364481521897	1
0	7634	540.364857521897	0
0	7669	545.627856258675	1
0	7670	545.628232258675	0
0	7695	550.873469222938	1
0	7696	550.873845222938	0
0	7751	555.872553667653	1
0	7752	555.872929667653	0
0	7772	560.153812250984	1
0	7773	560.154188250984	0
0	7813	565.013549181433	1
0	7814	565.013925181433	0
0	7854	570.207097568529	1
0	7855	570.207473568529	0
0	7905	575.588243233375	1
0	7906	575.588619233375	0
0	7946	580.588731529527	1
0	7947	580.589107529527	0
0	7972	585.073731682119	1
0	7973	585.074107682119	0
0	8023	590.89141410651	1
0	8024	590.89179010651	0
0	8064	595.484449782647	1
0	8065	595.484825782647	0
0	8090	600.370432631245	1
0	8091	600.370808631245	0
0	8141	605.252448073611	1
0	8142	605.252824073611	0
0	8167	610.118380261483	1
0	8168	610.118756261483	0
0	8208	615.047363689932	1
0	8209	615.047739689932	0
0	8244	620.694478164861	1
0	8245	620.694854164861	0
0	8300	625.692158758141	1
0	8301	625.692534758141	0
1	0	0	0
1	308	3.568277609668	1
1	309	3.568685609668	0
1	323	3.570069609668	1
1	326	3.570445609668	0
1	366	3.728415784173	1
1	367	3.728823784173	0
1	379	3.730231784173	1
1	380	3.730615784173	0
1	614	10.571259682852	1
1	615	10.571635682852	0
1	622	10.721776971588	1
1	623	10.722160971588	0
1	867	12.5657816104	1
1	868	12.5661656104	0
1	987	12.942837794976	1
1	988	12.943221794976	0
1	1095	13.102966340647	1
1	1097	13.103342340647	0
1	1137	13.129731073458	1
1	1140	13.130123073458	0
1	1243	13.179239059054	1
1	1246	13.179615059054	0
1	1303	13.20855934666	1
1	1304	13.20893534666	0
1	1318	13.227635488632	1
1	1323	13.228011488632	0
1	1465	13.331275310037	1
1	1466	13.331651310037	0
1	1560	13.366370559159	1
1	1561	13.366754559159	0
1	1635	13.422952912503	1
1	1636	13.423336912503	0
1	1789	13.508863553453	1
1	1791	13.509247553453	0
1	1797	13.509534960662	1
1	1804	13.509910960662	0
1	1830	13.588362197088	1
1	1831	13.588746197088	0
1	1897	13.624679223365	1
1	1898	13.625055223365	0
1	2077	13.762620812646	1
1	2078	13.762996812646	0
1	2595	14.055694206243	1
1	2596	14.056078206243	0
1	2883	14.306645836115	1
1	2884	14.307021836115	0
1	2898	14.311162575518	1
1	2899	14.311538575518	0
1	2932	14.328745089877	1
1	2934	14.329121089877	0
1	3136	14.479867859126	1
1	3137	14.480243859126	0
1	3361	14.886496479384	1
1	3362	14.886872479384	0
1	3488	16.398219734123	1
1	3489	16.398595734123	0
2	0	0	0
2	238	3.277687917722	1
2	239	3.278095917722	0
2	251	3.279503917722	1
2	252	3.279887917722	0
2	401	3.73182630195	1
2	405	3.73223430195	0
2	419	3.73361830195	1
2	422	3.73399430195	0
2	822	12.471784601214	1
2	823	12.472168601214	0
2	882	12.595415083101	1
2	883	12.595799083101	0
2	934	12.754110295602	1
2	935	12.754486295602	0
2	1138	13.129731073458	1
2	1141	13.130123073458	0
2	1363	13.285496509048	1
2	1364	13.285872509048	0
2	1450	13.314124944486	1
2	1451	13.314500944486	0
2	1518	13.350903601306	1
2	1522	13.351279601306	0
2	1552	13.362653227454	1
2	1553	13.363029227454	0
2	1605	13.396280771995	1
2	1606	13.396664771995	0
2	1672	13.435129797784	1
2	1673	13.435505797784	0
2	1777	13.484813931212	1
2	1778	13.485189931212	0
2	1845	13.590718048768	1
2	1846	13.591102048768	0
2	1882	13.609938783288	1
2	1883	13.610314783288	0
2	1965	13.67650068923	1
2	1966	13.67688468923	0
2	2115	13.796041690847	1
2	2116	13.796425690847	0
2	2137	13.812585539109	1
2	2138	13.812961539109	0
2	2160	13.826530718589	1
2	2161	13.826914718589	0
2	2212	13.854786711264	1
2	2213	13.855162711264	0
2	2235	13.857230265572	1
2	2236	13.857614265572	0
2	2325	13.891622552202	1
2	2326	13.892006552202	0
2	2475	13.984980746238	1
2	2476	13.985364746238	0
2	2505	14.004848295907	1
2	2506	14.005232295907	0
2	2520	14.01373021894	1
2	2521	14.01411421894	0
2	2540	14.030367696279	1
2	2547	14.030751696279	0
2	2610	14.063305909116	1
2	2611	14.063689909116	0
2	2790	14.229658452833	1
2	2792	14.230034452833	0
2	2812	14.275702883632	1
2	2817	14.276078883632	0
2	2817	14.276078883632	1
2	2819	14.276470883632	0
2	2913	14.32474227546	1
2	2914	14.32511827546	0
2	3016	14.348303601549	1
2	3017	14.348679601549	0
2	3046	14.398083143406	1
2	3047	14.398459143406	0
2	3061	14.408183733268	1
2	3062	14.408559733268	0
2	3166	14.525660290902	1
2	3167	14.526036290902	0
2	3174	14.621843818109	1
2	3175	14.622227818109	0
2	3211	14.673512691427	1
2	3212	14.673888691427	0
2	3264	14.81109116892	1
2	3265	14.81147516892	0
2	3376	14.915365952574	1
2	3377	14.915741952574	0
2	3435	15.235053265785	1
2	3436	15.235437265785	0
3	0	0	0
4	0	0	0
4	86	0.883602404859	1
4	88	0.884010404859	0
4	116	0.885418404859	1
4	118	0.885802404859	0
4	177	1.67980661446	1
4	178	1.68021461446	0
4	192	1.68159861446	1
4	195	1.68197461446	0
4	436	3.892268624775	1
4	437	3.892644624775	0
4	459	3.962278085513	1
4	460	3.962662085513	0
4	520	5.498214667196	1
4	521	5.498598667196	0
4	577	6.021788142217	1
4	578	6.022164142217	0
4	652	10.80721457564	1
4	653	10.80759857564	0
4	689	11.357888487075	1
4	690	11.358264487075	0
4	762	12.309701834162	1
4	763	12.310085834162	0
4	919	12.718403639515	1
4	920	12.718779639515	0
4	1089	13.102814784875	1
4	1096	13.103190784875	0
4	1122	13.128847073458	1
4	1123	13.129231073458	0
4	1165	13.130999073458	1
4	1166	13.131375073458	0
4	1179	13.135622182561	1
4	1180	13.136006182561	0
4	1381	13.293492358531	1
4	1388	13.293868358531	0
4	1388	13.293868358531	1
4	1391	13.294260358531	0
4	1590	13.383676627583	1
4	1591	13.384060627583	0
4	1620	13.399485215491	1
4	1621	13.399869215491	0
4	1657	13.43363231727	1
4	1658	13.43400831727	0
4	1740	13.468729639942	1
4	1741	13.469113639942	0
4	1867	13.606098340769	1
4	1868	13.606474340769	0
4	1912	13.631546924772	1
4	1913	13.631922924772	0
4	1927	13.637007664418	1
4	1928	13.637383664418	0
4	1935	13.641282329295	1
4	1936	13.641666329295	0
4	1950	13.669265728934	1
4	1951	13.669649728934	0
4	1980	13.719438158513	1
4	1981	13.719822158513	0
4	2107	13.790727323099	1
4	2108	13.791103323099	0
4	2190	13.829890570756	1
4	2191	13.830274570756	0
4	2287	13.884910553667	1
4	2288	13.885286553667	0
4	2407	13.95550475576	1
4	2408	13.95588075576	0
4	2422	13.959528309335	1
4	2427	13.959904309335	0
4	2435	13.960429050447	1
4	2442	13.960813050447	0
4	2546	14.030543844111	1
4	2548	14.030919844111	0
4	2565	14.037136878933	1
4	2566	14.037520878933	0
4	2632	14.075560719137	1
4	2633	14.075936719137	0
4	2640	14.087587827997	1
4	2641	14.087971827997	0
4	2685	14.16366869277	1
4	2686	14.16405269277	0
4	2720	14.21262423487	1
4	2727	14.21300823487	0
4	2828	14.276594883632	1
4	2830	14.276970883632	0
4	2963	14.333872199468	1
4	2966	14.334264199468	0
4	3031	14.362020043092	1
4	3032	14.362396043092	0
4	3196	14.637348257698	1
4	3197	14.637724257698	0
4	3226	14.687672243049	1
4	3227	14.688048243049	0
4	3234	14.709123939084	1
4	3235	14.709507939084	0
4	3346	14.876550261421	1
4	3347	14.876926261421	0
4	3405	15.086306050599	1
4	3406	15.086690050599	0
4	3466	15.923368022706	1
4	3467	15.923752022706	0
4	3532	20.727805413984	1
4	3533	20.728189413984	0
4	3573	25.680562761315	1
4	3574	25.680946761315	0
4	3599	30.305795464949	1
4	3600	30.306179464949	0
4	3635	35.048463393048	1
4	3636	35.048847393048	0
4	3676	40.710654011658	1
4	3677	40.711038011658	0
4	3732	45.947935422834	1
4	3733	45.948319422834	0
4	3768	50.835688344981	1
4	3769	50.836072344981	0
4	3809	55.88119144261	1
4	3810	55.88157544261	0
4	3835	60.358317819758	1
4	3836	60.358701819758	0
4	3871	65.360148930326	1
4	3872	65.360532930326	0
4	3927	70.621601001007	1
4	3928	70.621985001007	0
4	3953	75.089785454878	1
4	3954	75.090169454878	0
4	4004	80.533005767998	1
4	4005	80.533389767998	0
4	4030	85.309305093539	1
4	4031	85.309689093539	0
4	4086	90.88756981109	1
4	4087	90.88795381109	0
4	4122	95.948301644948	1
4	4123	95.948685644948	0
4	4148	100.020691549425	1
4	4149	100.021075549425	0
4	4204	105.75304422132	1
4	4205	105.75342822132	0
4	4240	110.197546311838	1
4	4241	110.197930311838	0
4	4266	115.040314951018	1
4	4267	115.040698951018	0
4	4322	120.644825586718	1
4	4323	120.645209586718	0
4	4343	125.234015930662	1
4	4344	125.234399930662	0
4	4384	130.631366924039	1
4	4385	130.631750924039	0
4	4440	135.841334269234	1
4	4441	135.841718269234	0
4	4476	140.504135258034	1
4	4477	140.504519258034	0
4	4502	145.024597918638	1
4	4503	145.024981918638	0
4	4543	150.085146641438	1
4	4544	150.085530641438	0
4	4594	155.425397503586	1
4	4595	155.425781503586	0
4	4635	160.336283455916	1
4	4636	160.336667455916	0
4	4661	165.396282845546	1
4	4662	165.396666845546	0
4	4712	170.697592089602	1
4	4713	170.697976089602	0
4	4753	175.297494430372	1
4	4754	175.297878430372	0
4	4779	180.006012146367	1
4	4780	180.006396146367	0
4	4830	185.014160588397	1
4	4831	185.014544588397	0
4	4871	190.400280770287	1
4	4872	190.400664770287	0
4	4897	195.350383007294	1
4	4898	195.350767007294	0
4	4933	200.118350779748	1
4	4934	200.118734779748	0
4	4974	205.45661793878	1
4	4975	205.45700193878	0
4	5030	210.593768120365	1
4	5031	210.594152120365	0
4	5051	215.946623126926	1
4	5052	215.947007126926	0
4	5092	220.757011627552	1
4	5093	220.757395627552	0
4	5133	225.859767448958	1
4	5134	225.860151448958	0
4	5184	230.948240607929	1
4	5185	230.948624607929	0
4	5210	235.125705740532	1
4	5211	235.126089740532	0
4	5251	240.347575304422	1
4	5252	240.347959304422	0
4	5287	245.686971648305	1
4	5288	245.687355648305	0
4	5328	250.329264198737	1
4	5329	250.329648198737	0
4	5384	255.936063722648	1
4	5385	255.936447722648	0
4	5405	260.64589373455	1
4	5406	260.64627773455	0
4	5446	265.623340556047	1
4	5447	265.623724556047	0
4	5502	270.848780785546	1
4	5503	270.849164785546	0
4	5523	275.891933957945	1
4	5524	275.892317957945	0
4	5579	280.851252784814	1
4	5580	280.851636784814	0
4	5620	285.595477156896	1
4	5621	285.595861156896	0
4	5641	290.040528580584	1
4	5642	290.040912580584	0
4	5697	295.555711539048	1
4	5698	295.556095539048	0
4	5738	300.844721823786	1
4	5739	300.845105823786	0
4	5774	305.915677358318	1
4	5775	305.916061358318	0
4	5800	310.161168248543	1
4	5801	310.161552248543	0
4	5841	315.24463637196	1
4	5842	315.24502037196	0
4	5892	320.552385021516	1
4	5893	320.552769021516	0
4	5918	325.551683095798	1
4	5919	325.552067095798	0
4	5974	330.615863521226	1
4	5975	330.616247521226	0
4	6010	335.86315500351	1
4	6011	335.86353900351	0
4	6036	340.433729056673	1
4	6037	340.434113056673	0
4	6092	345.52125614185	1
4	6093	345.52164014185	0
4	6128	350.509109775079	1
4	6129	350.509493775079	0
4	6169	355.859584337901	1
4	6170	355.859968337901	0
4	6195	360.094698934904	1
4	6196	360.095082934904	0
4	6246	365.411511581774	1
4	6247	365.411895581774	0
4	6272	370.320535905026	1
4	6273	370.320919905026	0
4	6313	375.308450575274	1
4	6314	375.308834575274	0
4	6349	380.026306955168	1
4	6350	380.026690955168	0
4	6390	385.023560289315	1
4	6391	385.023944289315	0
4	6431	390.705710013123	1
4	6432	390.706094013123	0
4	6467	395.117435224464	1
4	6468	395.117819224464	0
4	6523	400.467635120701	1
4	6524	400.468019120701	0
4	6549	405.14209418012	1
4	6550	405.14247818012	0
4	6585	410.421826837977	1
4	6586	410.422210837977	0
4	6626	415.35932493057	1
4	6627	415.35970893057	0
4	6682	420.394177068392	1
4	6683	420.394561068392	0
4	6703	425.42982268746	1
4	6704	425.43020668746	0
4	6744	430.37858211005	1
4	6745	430.37896611005	0
4	6785	435.729148228401	1
4	6786	435.729532228401	0
4	6836	440.631244850002	1
4	6837	440.631628850002	0
4	6862	445.447004608295	1
4	6863	445.447388608295	0
4	6903	450.813928647725	1
4	6904	450.814312647725	0
4	6939	455.126041444136	1
4	6940	455.126425444136	0
4	6995	460.092104861599	1
4	6996	460.092488861599	0
4	7036	465.796075319681	1
4	7037	465.796459319681	0
4	7057	470.594775231178	1
4	7058	470.595159231178	0
4	7098	475.360545670949	1
4	7099	475.360929670949	0
4	7139	480.141361735893	1
4	7140	480.141745735893	0
4	7190	485.391064180425	1
4	7191	485.391448180425	0
4	7216	490.642933439131	1
4	7217	490.643317439131	0
4	7272	495.986419263283	1
4	7273	495.986803263283	0
4	7293	500.083162938322	1
4	7294	500.083546938322	0
4	7349	505.852229377117	1
4	7350	505.852613377117	0
4	7390	510.485793633839	1
4	7391	510.486177633839	0
4	7411	515.257698294015	1
4	7412	515.258082294015	0
4	7467	520.774529251991	1
4	7468	520.774913251991	0
4	7508	525.025452436903	1
4	7509	525.025836436903	0
4	7544	530.932035279397	1
4	7545	530.932419279397	0
4	7585	535.21082186346	1
4	7586	535.21120586346	0
4	7626	540.363597521897	1
4	7627	540.363981521897	0
4	7662	545.626972258675	1
4	7663	545.627356258675	0
4	7688	550.872585222938	1
4	7689	550.872969222938	0
4	7744	555.871669667653	1
4	7745	555.872053667653	0
4	7765	560.152928250984	1
4	7766	560.153312250984	0
4	7806	565.012665181433	1
4	7807	565.013049181433	0
4	7847	570.206213568529	1
4	7848	570.206597568529	0
4	7898	575.587359233375	1
4	7899	575.587743233375	0
4	7939	580.587847529527	1
4	7940	580.588231529527	0
4	7965	585.072847682119	1
4	7966	585.073231682119	0
4	8016	590.89053010651	1
4	8017	590.89091410651	0
4	8057	595.483565782647	1
4	8058	595.483949782647	0
4	8083	600.369548631245	1
4	8084	600.369932631245	0
4	8134	605.251564073611	1
4	8135	605.251948073611	0
4	8160	610.117496261483	1
4	8161	610.117880261483	0
4	8201	615.046479689932	1
4	8202	615.046863689932	0
4	8237	620.693594164861	1
4	8238	620.693978164861	0
4	8293	625.691274758141	1
4	8294	625.691658758141	0
5	0	0	0
5	11	0.505294961394	1
5	12	0.505702961394	0
5	24	0.507110961394	1
5	25	0.507494961394	0
5	49	0.865420189093	1
5	50	0.865828189093	0
5	64	0.867212189093	1
5	67	0.867588189093	0
5	214	3.030517472701	1
5	215	3.030893472701	0
5	474	4.538345470382	1
5	475	4.538729470382	0
5	505	5.469954527421	1
5	506	5.470338527421	0
5	542	5.824791163549	1
5	543	5.825167163549	0
5	667	10.913754692221	1
5	668	10.914138692221	0
5	719	11.442563128391	1
5	720	11.442939128391	0
5	734	11.740071781243	1
5	735	11.740447781243	0
5	747	12.205220680196	1
5	748	12.205604680196	0
5	852	12.557206946013	1
5	853	12.557590946013	0
5	1009	12.951534533403	1
5	1010	12.951910533403	0
5	1114	13.11593774395	1
5	1115	13.11631374395	0
5	1209	13.177463059054	1
5	1210	13.177847059054	0
5	1252	13.179615059054	1
5	1253	13.179991059054	0
5	1386	13.293492358531	1
5	1389	13.293884358531	0
5	1478	13.349801082064	1
5	1494	13.350185082064	0
5	1575	13.373361371379	1
5	1576	13.373745371379	0
5	1680	13.439739129491	1
5	1681	13.440123129491	0
5	1695	13.442333202795	1
5	1696	13.442717202795	0
5	1725	13.454788607562	1
5	1726	13.455172607562	0
5	2047	13.747485705496	1
5	2048	13.747861705496	0
5	2092	13.775350141422	1
5	2093	13.775726141422	0
5	2152	13.814107611682	1
5	2153	13.814483611682	0
5	2257	13.865684929471	1
5	2258	13.866060929471	0
5	2355	13.910424027588	1
5	2356	13.910808027588	0
5	2392	13.931207132543	1
5	2393	13.931583132543	0
5	2490	13.990443559435	1
5	2491	13.990827559435	0
5	2868	14.286472064576	1
5	2869	14.286848064576	0
5	2940	14.329412644184	1
5	2944	14.329788644184	0
5	2960	14.333872199468	1
5	2965	14.334248199468	0
5	3106	14.43363231727	1
5	3107	14.43400831727	0
5	3151	14.485116005981	1
5	3152	14.485492005981	0
5	3458	15.671238319895	1
5	3459	15.671614319895	0
6	0	0	0
6	75	0.882656331065	1
6	76	0.883064331065	0
6	94	0.884472331065	1
6	100	0.884856331065	0
6	145	1.502921333537	1
6	146	1.503329333537	0
6	160	1.504713333537	1
6	163	1.505089333537	0
6	229	3.07425049678	1
6	230	3.07462649678	0
6	444	3.944180609394	1
6	445	3.944564609394	0
6	490	5.216162602618	1
6	491	5.216546602618	0
6	557	5.931392317148	1
6	558	5.931768317148	0
6	591	10.193517868587	1
6	592	10.193901868587	0
6	644	10.787863767082	1
6	645	10.788239767082	0
6	777	12.331888790551	1
6	778	12.332272790551	0
6	814	12.452801051545	1
6	815	12.453177051545	0
6	964	12.910486101383	1
6	965	12.910862101383	0
6	1017	13.01458577398	1
6	1018	13.01496977398	0
6	1032	13.045958801721	1
6	1033	13.046342801721	0
6	1069	13.096130194524	1
6	1070	13.096506194524	0
6	1273	13.190309277993	1
6	1274	13.190685277993	0
6	1281	13.197391645742	1
6	1282	13.197775645742	0
6	1333	13.228581562425	1
6	1334	13.228957562425	0
6	1387	13.293492358531	1
6	1390	13.293884358531	0
6	1435	13.299083172215	1
6	1436	13.299459172215	0
6	1473	13.349127601306	1
6	1474	13.349511601306	0
6	1528	13.351279601306	1
6	1532	13.351655601306	0
6	1815	13.521101475752	1
6	1816	13.521485475752	0
6	2002	13.725546750083	1
6	2003	13.725922750083	0
6	2025	13.741078892056	1
6	2026	13.741462892056	0
6	2171	13.827490423169	1
6	2173	13.827874423169	0
6	2217	13.855434563188	1
6	2221	13.855818563188	0
6	2272	13.875569816217	1
6	2273	13.875945816217	0
6	2300	13.887290997405	1
6	2307	13.887674997405	0
6	2307	13.887674997405	1
6	2308	13.888050997405	0
6	2340	13.901145363933	1
6	2341	13.901529363933	0
6	2370	13.929046244819	1
6	2371	13.929430244819	0
6	2441	13.96044771752	1
6	2443	13.96082371752	0
6	2662	14.109829894955	1
6	2663	14.110205894955	0
6	2677	14.134887664783	1
6	2678	14.135263664783	0
6	2726	14.21292245674	1
6	2728	14.21329845674	0
6	2791	14.229658452833	1
6	2793	14.230034452833	0
6	2964	14.333872199468	1
6	2967	14.334264199468	0
6	2971	14.334601827571	1
6	2987	14.334985827571	0
6	3069	14.419960025025	1
6	3070	14.420344025025	0
6	3091	14.426047875972	1
6	3092	14.426423875972	0
6	3121	14.475660157719	1
6	3122	14.476036157719	0
6	3249	14.796498431714	1
6	3250	14.796882431714	0
6	3279	14.81716331553	1
6	3280	14.81754731553	0
6	3291	14.818475611438	1
6	3292	14.818859611438	0
6	3316	14.828790867641	1
6	3317	14.829166867641	0
6	3331	14.867945078523	1
6	3332	14.868321078523	0
6	3420	15.097140415662	1
6	3421	15.097524415662	0
6	3517	20.414838099307	1
6	3518	20.415222099307	0
6	3558	25.324350718711	1
6	3559	25.324734718711	0
6	3614	30.415204321421	1
6	3615	30.415588321421	0
6	3650	35.396740623188	1
6	3651	35.397124623188	0
6	3691	40.883632923368	1
6	3692	40.884016923368	0
6	3717	45.723654896695	1
6	3718	45.724038896695	0
6	3753	50.646320993683	1
6	3754	50.646704993683	0
6	3794	55.355479598376	1
6	3795	55.355863598376	0
6	3850	60.685171056246	1
6	3851	60.685555056246	0
6	3886	65.883846552934	1
6	3887	65.884230552934	0
6	3912	70.11822870571	1
6	3913	70.11861270571	0
6	3968	75.516708883938	1
6	3969	75.517092883938	0
6	3989	80.127628406629	1
6	3990	80.128012406629	0
6	4045	85.679433576464	1
6	4046	85.679817576464	0
6	4071	90.615924558245	1
6	4072	90.616308558245	0
6	4107	95.171758171331	1
6	4108	95.172142171331	0
6	4163	100.872249519333	1
6	4164	100.872633519333	0
6	4189	105.413342692343	1
6	4190	105.413726692343	0
6	4225	110.029419843135	1
6	4226	110.029803843135	0
6	4281	115.807947019868	1
6	4282	115.808331019868	0
6	4307	120.593554490799	1
6	4308	120.593938490799	0
6	4358	125.758262886441	1
6	4359	125.758646886441	0
6	4399	130.826654866176	1
6	4400	130.827038866176	0
6	4425	135.362315744499	1
6	4426	135.362699744499	0
6	4461	140.264595477157	1
6	4462	140.264979477157	0
6	4517	145.322885830256	1
6	4518	145.323269830256	0
6	4558	150.150761436811	1
6	4559	150.151145436811	0
6	4579	155.10074159978	1
6	4580	155.10112559978	0
6	4620	160.067018646809	1
6	4621	160.067402646809	0
6	4676	165.843684194464	1
6	4677	165.844068194464	0
6	4697	170.543168431654	1
6	4698	170.543552431654	0
6	4738	175.1217383343	1
6	4739	175.1221223343	0
6	4794	180.926297799615	1
6	4795	180.926681799615	0
6	4815	185.000885036775	1
6	4816	185.001269036775	0
6	4856	190.290871913816	1
6	4857	190.291255913816	0
6	4912	195.485305337687	1
6	4913	195.485689337687	0
6	4948	200.671651356548	1
6	4949	200.672035356548	0
6	4989	205.860316782128	1
6	4990	205.860700782128	0
6	5015	210.399334696493	1
6	5016	210.399718696493	0
[...]
393	998	12.944597794976	932331
393	1171	13.131499073458	932331
393	1571	13.368130559159	932331
393	1646	13.424712912503	932331
393	1811	13.510623553453	932331
393	1841	13.590122197088	932331
393	2606	14.057454206243	932331
394	376	3.730231784173	932104
394	404	3.731991784173	932105
394	633	10.723536971588	932106
394	878	12.5675416104	932107
394	998	12.944597794976	932108
394	1171	13.131499073458	932110
394	1571	13.368130559159	932111
394	1646	13.424712912503	932112
394	1811	13.510623553453	932113
394	1841	13.590122197088	932114
394	2606	14.057454206243	932115
395	376	3.730231784173	7504
395	404	3.731991784173	7503
395	633	10.723536971588	7504
395	878	12.5675416104	7504
395	998	12.944597794976	7504
395	1171	13.131499073458	7504
395	1571	13.368130559159	7504
395	1646	13.424712912503	7504
395	1811	13.510623553453	7504
395	1841	13.590122197088	7504
395	2606	14.057454206243	7504
396	376	3.730231784173	1
396	404	3.731991784173	0
396	620	10.721776971588	1
396	633	10.723536971588	0
396	865	12.5657816104	1
396	878	12.5675416104	0
396	985	12.942837794976	1
396	998	12.944597794976	0
396	1130	13.129731073458	2
396	1171	13.131499073458	0
396	1558	13.366370559159	1
396	1571	13.368130559159	0
396	1633	13.422952912503	1
396	1646	13.424712912503	0
396	1787	13.508863553453	1
396	1811	13.510623553453	0
396	1828	13.588362197088	1
396	1841	13.590122197088	0
396	2593	14.055694206243	1
396	2606	14.057454206243	0
397	382	3.73091830195	0
397	408	3.73273430195	0
397	925	12.753226295602	0
397	1354	13.284612509048	0
397	1441	13.313240944486	0
397	1484	13.350011601306	0
397	1543	13.361769227454	0
397	1660	13.434245797784	0
397	1768	13.483929931212	0
397	1873	13.609054783288	0
397	2128	13.811701539109	0
397	2203	13.853902711264	0
397	2767	14.228766452833	0
397	2801	14.274818883632	0
397	2904	14.32385827546	0
397	3007	14.347419601549	0
397	3037	14.397199143406	0
397	3052	14.407299733268	0
397	3157	14.524776290902	0
397	3202	14.672628691427	0
397	3367	14.914481952574	0
398	382	3.73091830195	7504
398	408	3.73273430195	940461
398	408	3.73273430195	940461
398	925	12.753226295602	940461
398	1354	13.284612509048	940461
398	1441	13.313240944486	940461
398	1484	13.350011601306	940461
398	1543	13.361769227454	940461
398	1660	13.434245797784	940461
398	1768	13.483929931212	940461
398	1873	13.609054783288	940461
398	2128	13.811701539109	940461
398	2203	13.853902711264	940461
398	2767	14.228766452833	940461
398	2801	14.274818883632	940461
398	2904	14.32385827546	940461
398	3007	14.347419601549	940461
398	3037	14.397199143406	940461
398	3052	14.407299733268	940461
398	3157	14.524776290902	940461
398	3202	14.672628691427	940461
398	3367	14.914481952574	940461
399	382	3.73091830195	7504
399	408	3.73273430195	7504
399	925	12.753226295602	7504
399	1354	13.284612509048	7504
399	1441	13.313240944486	7504
399	1484	13.350011601306	7504
399	1543	13.361769227454	7504
399	1660	13.434245797784	7504
399	1768	13.483929931212	7504
399	1873	13.609054783288	7504
399	2128	13.811701539109	7504
399	2203	13.853902711264	7504
399	2767	14.228766452833	7504
399	2801	14.274818883632	7504
399	2904	14.32385827546	7504
399	3007	14.347419601549	7504
399	3037	14.397199143406	7504
399	3052	14.407299733268	7504
399	3157	14.524776290902	7504
399	3202	14.672628691427	7504
399	3367	14.914481952574	7504
400	382	3.73091830195	0
400	408	3.73273430195	932957
400	925	12.753226295602	932957
400	1354	13.284612509048	932957
400	1441	13.313240944486	932957
400	1484	13.350011601306	932957
400	1543	13.361769227454	932957
400	1660	13.434245797784	932957
400	1768	13.483929931212	932957
400	1873	13.609054783288	932957
400	2128	13.811701539109	932957
400	2203	13.853902711264	932957
400	2767	14.228766452833	932957
400	2801	14.274818883632	932957
400	2904	14.32385827546	932957
400	3007	14.347419601549	932957
400	3037	14.397199143406	932957
400	3052	14.407299733268	932957
400	3157	14.524776290902	932957
400	3202	14.672628691427	932957
400	3367	14.914481952574	932957
401	388	3.731115784173	932104
401	626	10.722660971588	932105
401	871	12.5666656104	932106
401	991	12.943721794976	932107
401	1150	13.130623073458	932108
401	1564	13.367254559159	932110
401	1639	13.423836912503	932111
401	1800	13.509747553453	932112
401	1834	13.589246197088	932113
401	2599	14.056578206243	932114
402	388	3.731115784173	932331
402	626	10.722660971588	932331
402	871	12.5666656104	932331
402	991	12.943721794976	932331
402	1150	13.130623073458	932331
402	1564	13.367254559159	932331
402	1639	13.423836912503	932331
402	1800	13.509747553453	932331
402	1834	13.589246197088	932331
402	2599	14.056578206243	932331
403	388	3.731115784173	0
404	388	3.731115784173	1072
405	388	3.731115784173	4294967295
406	388	3.731115784173	0
406	626	10.722660971588	0
406	871	12.5666656104	0
406	991	12.943721794976	0
406	1150	13.130623073458	0
406	1564	13.367254559159	0
406	1639	13.423836912503	0
406	1800	13.509747553453	0
406	1834	13.589246197088	0
406	2599	14.056578206243	0
407	399	3.73182630195	940234
407	399	3.73182630195	940234
407	415	3.73361830195	940234
407	931	12.754110295602	940236
407	1360	13.285496509048	940237
407	1447	13.314124944486	940238
407	1512	13.350903601306	940240
407	1549	13.362653227454	940241
407	1669	13.435129797784	940242
407	1774	13.484813931212	940243
407	1879	13.609938783288	940244
407	2134	13.812585539109	940245
407	2209	13.854786711264	940246
407	2784	14.229658452833	940248
407	2807	14.275702883632	940249
407	2910	14.32474227546	940250
407	3013	14.348303601549	940251
407	3043	14.398083143406	940252
407	3058	14.408183733268	940253
407	3163	14.525660290902	940254
407	3208	14.673512691427	940255
407	3373	14.915365952574	940256
408	399	3.73182630195	7504
408	415	3.73361830195	7504
409	399	3.73182630195	0
409	415	3.73361830195	0
409	415	3.73361830195	1
409	931	12.754110295602	0
409	931	12.754110295602	0
409	1360	13.285496509048	0
409	1360	13.285496509048	0
409	1447	13.314124944486	0
409	1447	13.314124944486	0
409	1512	13.350903601306	0
409	1512	13.350903601306	0
409	1549	13.362653227454	0
409	1549	13.362653227454	0
409	1669	13.435129797784	0
409	1669	13.435129797784	0
409	1774	13.484813931212	0
409	1774	13.484813931212	0
409	1879	13.609938783288	0
409	1879	13.609938783288	0
409	2134	13.812585539109	0
409	2134	13.812585539109	0
409	2209	13.854786711264	0
409	2209	13.854786711264	0
409	2784	14.229658452833	0
409	2784	14.229658452833	0
409	2807	14.275702883632	0
409	2807	14.275702883632	0
409	2910	14.32474227546	0
409	2910	14.32474227546	0
409	3013	14.348303601549	0
409	3013	14.348303601549	0
409	3043	14.398083143406	0
409	3043	14.398083143406	0
409	3058	14.408183733268	0
409	3058	14.408183733268	0
409	3163	14.525660290902	0
409	3163	14.525660290902	0
409	3208	14.673512691427	0
409	3208	14.673512691427	0
409	3373	14.915365952574	0
409	3373	14.915365952574	0
410	399	3.73182630195	7504
410	415	3.73361830195	7503
410	931	12.754110295602	7504
410	1360	13.285496509048	7504
410	1447	13.314124944486	7504
410	1512	13.350903601306	7504
410	1549	13.362653227454	7504
410	1669	13.435129797784	7504
410	1774	13.484813931212	7504
410	1879	13.609938783288	7504
410	2134	13.812585539109	7504
410	2209	13.854786711264	7504
410	2784	14.229658452833	7504
410	2807	14.275702883632	7504
410	2910	14.32474227546	7504
410	3013	14.348303601549	7504
410	3043	14.398083143406	7504
410	3058	14.408183733268	7504
410	3163	14.525660290902	7504
410	3208	14.673512691427	7504
410	3373	14.915365952574	7504
411	399	3.73182630195	932730
411	415	3.73361830195	932731
411	931	12.754110295602	932732
411	1360	13.285496509048	932733
411	1447	13.314124944486	932734
411	1512	13.350903601306	932736
411	1549	13.362653227454	932737
411	1669	13.435129797784	932738
411	1774	13.484813931212	932739
411	1879	13.609938783288	932740
411	2134	13.812585539109	932741
411	2209	13.854786711264	932742
411	2784	14.229658452833	932744
411	2807	14.275702883632	932745
411	2910	14.32474227546	932746
411	3013	14.348303601549	932747
411	3043	14.398083143406	932748
411	3058	14.408183733268	932749
411	3163	14.525660290902	932750
411	3208	14.673512691427	932751
411	3373	14.915365952574	932752
412	404	3.731991784173	0.00176
412	633	10.723536971588	0.00176
412	878	12.5675416104	0.00176
412	998	12.944597794976	0.00176
412	1171	13.131499073458	0.001768
412	1571	13.368130559159	0.00176
412	1646	13.424712912503	0.00176
412	1811	13.510623553453	0.00176
412	1841	13.590122197088	0.00176
412	2606	14.057454206243	0.00176
413	404	3.731991784173	0.00022
413	633	10.723536971588	0.0004125
413	878	12.5675416104	0.0005809375
413	998	12.944597794976	0.000728320313
413	1171	13.131499073458	0.000858280274
413	1571	13.368130559159	0.00097099524
413	1646	13.424712912503	0.001069620835
413	1811	13.510623553453	0.001155918231
413	1841	13.590122197088	0.001231428452
413	2606	14.057454206243	0.001297499896
414	404	3.731991784173	0.65647
414	633	10.723536971588	0.57460375
414	878	12.5675416104	0.50294671875
414	998	12.944597794976	0.440225761719
414	1171	13.131499073458	0.385327501465
414	1571	13.368130559159	0.337274278748
414	1646	13.424712912503	0.2952136195
414	1811	13.510623553453	0.258398214458
414	1841	13.590122197088	0.226173947872
414	2606	14.057454206243	0.197968275832
415	404	3.731991784173	2.6261
415	633	10.723536971588	2.2988275
415	878	12.5675416104	2.0123678125
415	998	12.944597794976	1.761631367189
415	1171	13.131499073458	1.542168286134
415	1571	13.368130559159	1.350068110232
415	1646	13.424712912503	1.181924098835
415	1811	13.510623553453	1.034748776063
415	1841	13.590122197088	1
415	2606	14.057454206243	1
416	404	3.731991784173	1072
416	633	10.723536971588	1072
416	878	12.5675416104	1608
416	998	12.944597794976	2144
416	1171	13.131499073458	2680
416	1571	13.368130559159	3216
416	1646	13.424712912503	3752
416	1811	13.510623553453	4288
416	1841	13.590122197088	4824
416	2606	14.057454206243	5360
417	404	3.731991784173	4294967295
417	633	10.723536971588	4294967295
417	878	12.5675416104	4294967295
417	998	12.944597794976	4294967295
417	1171	13.131499073458	4294967295
417	1571	13.368130559159	4294967295
417	1646	13.424712912503	4294967295
417	1811	13.510623553453	4294967295
417	1841	13.590122197088	4294967295
417	2606	14.057454206243	4294967295
418	404	3.731991784173	0
418	633	10.723536971588	0
418	878	12.5675416104	0
418	998	12.944597794976	0
418	1171	13.131499073458	0
418	1571	13.368130559159	0
418	1646	13.424712912503	0
418	1811	13.510623553453	0
418	1841	13.590122197088	0
418	2606	14.057454206243	0
419	408	3.73273430195	932956
419	425	3.73449430195	932957
419	938	12.754986295602	932957
419	1367	13.286372509048	932957
419	1454	13.315000944486	932957
419	1537	13.351779601306	932957
419	1556	13.363529227454	932957
419	1676	13.436005797784	932957
419	1781	13.485689931212	932957
419	1886	13.610814783288	932957
419	2145	13.813461539109	932957
419	2220	13.855662711264	932957
419	2798	14.230534452833	932957
419	2822	14.276578883632	932957
419	2917	14.32561827546	932957
419	3020	14.349179601549	932957
419	3050	14.398959143406	932957
419	3065	14.409059733268	932957
419	3170	14.526536290902	932957
419	3215	14.674388691427	932957
419	3380	14.916241952574	932957
420	408	3.73273430195	932730
420	425	3.73449430195	932731
420	938	12.754986295602	932732
420	1367	13.286372509048	932733
420	1454	13.315000944486	932734
420	1537	13.351779601306	932736
420	1556	13.363529227454	932737
420	1676	13.436005797784	932738
420	1781	13.485689931212	932739
420	1886	13.610814783288	932740
420	2145	13.813461539109	932741
420	2220	13.855662711264	932742
420	2798	14.230534452833	932744
420	2822	14.276578883632	932745
420	2917	14.32561827546	932746
420	3020	14.349179601549	932747
420	3050	14.398959143406	932748
420	3065	14.409059733268	932749
420	3170	14.526536290902	932750
420	3215	14.674388691427	932751
420	3380	14.916241952574	932752
421	408	3.73273430195	7504
421	425	3.73449430195	7503
421	938	12.754986295602	7504
421	1367	13.286372509048	7504
421	1454	13.315000944486	7504
421	1537	13.351779601306	7504
421	1556	13.363529227454	7504
421	1676	13.436005797784	7504
421	1781	13.485689931212	7504
421	1886	13.610814783288	7504
421	2145	13.813461539109	7504
421	2220	13.855662711264	7504
421	2798	14.230534452833	7504
421	2822	14.276578883632	7504
421	2917	14.32561827546	7504
421	3020	14.349179601549	7504
421	3050	14.398959143406	7504
421	3065	14.409059733268	7504
421	3170	14.526536290902	7504
421	3215	14.674388691427	7504
421	3380	14.916241952574	7504
422	408	3.73273430195	1
422	425	3.73449430195	0
422	925	12.753226295602	1
422	938	12.754986295602	0
422	1354	13.284612509048	1
422	1367	13.286372509048	0
422	1441	13.313240944486	1
422	1454	13.315000944486	0
422	1484	13.350011601306	2
422	1537	13.351779601306	0
422	1543	13.361769227454	1
422	1556	13.363529227454	0
422	1660	13.434245797784	1
422	1676	13.436005797784	0
422	1768	13.483929931212	1
422	1781	13.485689931212	0
422	1873	13.609054783288	1
422	1886	13.610814783288	0
422	2128	13.811701539109	1
422	2145	13.813461539109	0
422	2203	13.853902711264	1
422	2220	13.855662711264	0
422	2767	14.228766452833	2
422	2798	14.230534452833	0
422	2801	14.274818883632	1
422	2822	14.276578883632	0
422	2904	14.32385827546	1
422	2917	14.32561827546	0
422	3007	14.347419601549	1
422	3020	14.349179601549	0
422	3037	14.397199143406	1
422	3050	14.398959143406	0
422	3052	14.407299733268	1
422	3065	14.409059733268	0
422	3157	14.524776290902	1
422	3170	14.526536290902	0
422	3202	14.672628691427	1
422	3215	14.674388691427	0
422	3367	14.914481952574	1
422	3380	14.916241952574	0
423	415	3.73361830195	932730
423	931	12.754110295602	932731
423	1360	13.285496509048	932732
423	1447	13.314124944486	932733
423	1512	13.350903601306	932734
423	1549	13.362653227454	932736
423	1669	13.435129797784	932737
423	1774	13.484813931212	932738
423	1879	13.609938783288	932739
423	2134	13.812585539109	932740
423	2209	13.854786711264	932741
423	2784	14.229658452833	932742
423	2807	14.275702883632	932744
423	2910	14.32474227546	932745
423	3013	14.348303601549	932746
423	3043	14.398083143406	932747
423	3058	14.408183733268	932748
423	3163	14.525660290902	932749
423	3208	14.673512691427	932750
423	3373	14.915365952574	932751
424	415	3.73361830195	932957
424	931	12.754110295602	932957
424	1360	13.285496509048	932957
424	1447	13.314124944486	932957
424	1512	13.350903601306	932957
424	1549	13.362653227454	932957
424	1669	13.435129797784	932957
424	1774	13.484813931212	932957
424	1879	13.609938783288	932957
424	2134	13.812585539109	932957
424	2209	13.854786711264	932957
424	2784	14.229658452833	932957
424	2807	14.275702883632	932957
424	2910	14.32474227546	932957
424	3013	14.348303601549	932957
424	3043	14.398083143406	932957
424	3058	14.408183733268	932957
424	3163	14.525660290902	932957
424	3208	14.673512691427	932957
424	3373	14.915365952574	932957
425	415	3.73361830195	0
426	415	3.73361830195	1072
427	415	3.73361830195	4294967295
428	415	3.73361830195	0
428	931	12.754110295602	0
428	1360	13.285496509048	0
428	1447	13.314124944486	0
428	1512	13.350903601306	0
428	1549	13.362653227454	0
428	1669	13.435129797784	0
428	1774	13.484813931212	0
428	1879	13.609938783288	0
428	2134	13.812585539109	0
428	2209	13.854786711264	0
428	2784	14.229658452833	0
428	2807	14.275702883632	0
428	2910	14.32474227546	0
428	3013	14.348303601549	0
428	3043	14.398083143406	0
428	3058	14.408183733268	0
428	3163	14.525660290902	0
428	3208	14.673512691427	0
428	3373	14.915365952574	0
429	425	3.73449430195	0.00176
429	938	12.754986295602	0.00176
429	1367	13.286372509048	0.00176
429	1454	13.315000944486	0.00176
429	1537	13.351779601306	0.001768
429	1556	13.363529227454	0.00176
429	1676	13.436005797784	0.00176
429	1781	13.485689931212	0.00176
429	1886	13.610814783288	0.00176
429	2145	13.813461539109	0.00176
429	2220	13.855662711264	0.00176
429	2798	14.230534452833	0.001768
429	2822	14.276578883632	0.00176
429	2917	14.32561827546	0.00176
429	3020	14.349179601549	0.00176
429	3050	14.398959143406	0.00176
429	3065	14.409059733268	0.00176
429	3170	14.526536290902	0.00176
429	3215	14.674388691427	0.00176
429	3380	14.916241952574	0.00176
430	425	3.73449430195	0.00022
430	938	12.754986295602	0.0004125
430	1367	13.286372509048	0.0005809375
430	1454	13.315000944486	0.000728320313
430	1537	13.351779601306	0.000858280274
430	1556	13.363529227454	0.00097099524
430	1676	13.436005797784	0.001069620835
430	1781	13.485689931212	0.001155918231
430	1886	13.610814783288	0.001231428452
430	2145	13.813461539109	0.001297499896
430	2220	13.855662711264	0.001355312409
430	2798	14.230534452833	0.001406898358
430	2822	14.276578883632	0.001451036063
430	2917	14.32561827546	0.001489656555
430	3020	14.349179601549	0.001523449486
430	3050	14.398959143406	0.0015530183
430	3065	14.409059733268	0.001578891013
430	3170	14.526536290902	0.001601529636
430	3215	14.674388691427	0.001621338432
430	3380	14.916241952574	0.001638671128
431	425	3.73449430195	0.65647
431	938	12.754986295602	0.57460375
431	1367	13.286372509048	0.50294671875
431	1454	13.315000944486	0.440225761719
431	1537	13.351779601306	0.385327501465
431	1556	13.363529227454	0.337274278748
431	1676	13.436005797784	0.2952136195
431	1781	13.485689931212	0.258398214458
431	1886	13.610814783288	0.226173947872
431	2145	13.813461539109	0.197968275832
431	2220	13.855662711264	0.173280053866
431	2798	14.230534452833	0.151671633082
431	2822	14.276578883632	0.132756816652
431	2917	14.32561827546	0.116200835063
431	3020	14.349179601549	0.101709523611
431	3050	14.398959143406	0.089025401974
431	3065	14.409059733268	0.07792309944
431	3170	14.526536290902	0.068205350633
431	3215	14.674388691427	0.059699490599
431	3380	14.916241952574	0.05225438697
432	425	3.73449430195	2.6261
432	938	12.754986295602	2.2988275
432	1367	13.286372509048	2.0123678125
432	1454	13.315000944486	1.761631367189
432	1537	13.351779601306	1.542168286134
432	1556	13.363529227454	1.350068110232
432	1676	13.436005797784	1.181924098835
432	1781	13.485689931212	1.034748776063
432	1886	13.610814783288	1
432	2145	13.813461539109	1
432	2220	13.855662711264	1
432	2798	14.230534452833	1
432	2822	14.276578883632	1
432	2917	14.32561827546	1
432	3020	14.349179601549	1
432	3050	14.398959143406	1
432	3065	14.409059733268	1
432	3170	14.526536290902	1
432	3215	14.674388691427	1
432	3380	14.916241952574	1
433	425	3.73449430195	1072
433	938	12.754986295602	1072
433	1367	13.286372509048	1608
433	1454	13.315000944486	2144
433	1537	13.351779601306	2680
433	1556	13.363529227454	3216
433	1676	13.436005797784	3752
433	1781	13.485689931212	4288
433	1886	13.610814783288	4824
433	2145	13.813461539109	5360
433	2220	13.855662711264	5896
433	2798	14.230534452833	6432
433	2822	14.276578883632	6968
433	2917	14.32561827546	7504
433	3020	14.349179601549	8040
433	3050	14.398959143406	8576
433	3065	14.409059733268	9112
433	3170	14.526536290902	9648
433	3215	14.674388691427	10184
433	3380	14.916241952574	10720
434	425	3.73449430195	4294967295
434	938	12.754986295602	4294967295
434	1367	13.286372509048	4294967295
434	1454	13.315000944486	4294967295
434	1537	13.351779601306	4294967295
434	1556	13.363529227454	4294967295
434	1676	13.436005797784	4294967295
434	1781	13.485689931212	4294967295
434	1886	13.610814783288	4294967295
434	2145	13.813461539109	4294967295
434	2220	13.855662711264	4294967295
434	2798	14.230534452833	4294967295
434	2822	14.276578883632	4294967295
434	2917	14.32561827546	4294967295
434	3020	14.349179601549	4294967295
434	3050	14.398959143406	4294967295
434	3065	14.409059733268	4294967295
434	3170	14.526536290902	4294967295
434	3215	14.674388691427	4294967295
434	3380	14.916241952574	4294967295
435	425	3.73449430195	0
435	938	12.754986295602	0
435	1367	13.286372509048	0
435	1454	13.315000944486	0
435	1537	13.351779601306	0
435	1556	13.363529227454	0
435	1676	13.436005797784	0
435	1781	13.485689931212	0
435	1886	13.610814783288	0
435	2145	13.813461539109	0
435	2220	13.855662711264	0
435	2798	14.230534452833	0
435	2822	14.276578883632	0
435	2917	14.32561827546	0
435	3020	14.349179601549	0
435	3050	14.398959143406	0
435	3065	14.409059733268	0
435	3170	14.526536290902	0
435	3215	14.674388691427	0
435	3380	14.916241952574	0

