file 358897 1641925113                                          
version 2
run L_1_2-0-20220111-19:18:27-14836
attr configname L_1_2
attr datetime 20220111-19:18:27
attr experiment L_1_2
attr inifile omnetpp.ini
attr iterationvars ""
attr iterationvarsf ""
attr measurement ""
attr network scenario
attr processid 14836
attr repetition 0
attr replication #0
attr resultdir results
attr runnumber 0
attr seedset 0
param **.client1.app[0].leave 0.0
param **.client2.app[0].leave 10.5
param **.ppp[*].ppp.queue.typename "\"DropTailQueue\""
param **.tcp.typename "\"Tcp\""
param **.tcp.nagleEnabled false
param **.cli*.app[*].nPar 5
param **.cli*.app[*].fPar 0
param **.numApps 1
param **.client0.app[*].typename "\"Node\""
param **.client0.app[0].localPort 1000
param **.client0.app[0].localPortL 1234
param **.client0.app[0].connectAddress "\"\""
param **.client0.app[0].connectPort 1234
param **.client1.app[*].typename "\"Node\""
param **.client1.app[0].localPort 1001
param **.client1.app[0].localPortL 1234
param **.client1.app[0].connectAddress "\"\""
param **.client1.app[0].connectPort 1234
param **.client2.app[*].typename "\"Node\""
param **.client2.app[0].localPort 1002
param **.client2.app[0].localPortL 1234
param **.client2.app[0].connectAddress "\"\""
param **.client2.app[0].connectPort 1234
param **.client3.app[*].typename "\"Node\""
param **.client3.app[0].localPort 1003
param **.client3.app[0].localPortL 1234
param **.client3.app[0].connectAddress "\"\""
param **.client3.app[0].connectPort 1234
param **.client4.app[*].typename "\"Node\""
param **.client4.app[0].localPort 1004
param **.client4.app[0].localPortL 1234
param **.client4.app[0].connectAddress "\"\""
param **.client4.app[0].connectPort 1234
param *.configurator.dumpAddresses true
param *.configurator.dumpTopology true
param *.configurator.dumpLinks true
param *.configurator.dumpRoutes true

vector 0 scenario.client0.ppp[0].ppp transmissionState:vector ETV
attr interpolationmode sample-hold
attr source transmissionStateChanged
attr title "tx state, vector"
vector 1 scenario.client0.ppp[1].ppp transmissionState:vector ETV
attr interpolationmode sample-hold
attr source transmissionStateChanged
attr title "tx state, vector"
vector 2 scenario.client0.ppp[2].ppp transmissionState:vector ETV
attr interpolationmode sample-hold
attr source transmissionStateChanged
attr title "tx state, vector"
vector 3 scenario.client0.ppp[3].ppp transmissionState:vector ETV
attr interpolationmode sample-hold
attr source transmissionStateChanged
attr title "tx state, vector"
vector 4 scenario.client1.ppp[0].ppp transmissionState:vector ETV
attr interpolationmode sample-hold
attr source transmissionStateChanged
attr title "tx state, vector"
vector 5 scenario.client1.ppp[1].ppp transmissionState:vector ETV
attr interpolationmode sample-hold
attr source transmissionStateChanged
attr title "tx state, vector"
vector 6 scenario.client1.ppp[2].ppp transmissionState:vector ETV
attr interpolationmode sample-hold
attr source transmissionStateChanged
attr title "tx state, vector"
vector 7 scenario.client1.ppp[3].ppp transmissionState:vector ETV
attr interpolationmode sample-hold
attr source transmissionStateChanged
attr title "tx state, vector"
vector 8 scenario.client2.ppp[0].ppp transmissionState:vector ETV
attr interpolationmode sample-hold
attr source transmissionStateChanged
attr title "tx state, vector"
vector 9 scenario.client2.ppp[1].ppp transmissionState:vector ETV
attr interpolationmode sample-hold
attr source transmissionStateChanged
attr title "tx state, vector"
vector 10 scenario.client2.ppp[2].ppp transmissionState:vector ETV
attr interpolationmode sample-hold
attr source transmissionStateChanged
attr title "tx state, vector"
vector 11 scenario.client2.ppp[3].ppp transmissionState:vector ETV
attr interpolationmode sample-hold
attr source transmissionStateChanged
attr title "tx state, vector"
vector 12 scenario.client3.ppp[0].ppp transmissionState:vector ETV
attr interpolationmode sample-hold
attr source transmissionStateChanged
attr title "tx state, vector"
vector 13 scenario.client3.ppp[1].ppp transmissionState:vector ETV
attr interpolationmode sample-hold
attr source transmissionStateChanged
attr title "tx state, vector"
vector 14 scenario.client3.ppp[2].ppp transmissionState:vector ETV
attr interpolationmode sample-hold
attr source transmissionStateChanged
attr title "tx state, vector"
vector 15 scenario.client3.ppp[3].ppp transmissionState:vector ETV
attr interpolationmode sample-hold
attr source transmissionStateChanged
attr title "tx state, vector"
vector 16 scenario.client4.ppp[0].ppp transmissionState:vector ETV
attr interpolationmode sample-hold
attr source transmissionStateChanged
attr title "tx state, vector"
vector 17 scenario.client4.ppp[1].ppp transmissionState:vector ETV
attr interpolationmode sample-hold
attr source transmissionStateChanged
attr title "tx state, vector"
vector 18 scenario.client4.ppp[2].ppp transmissionState:vector ETV
attr interpolationmode sample-hold
attr source transmissionStateChanged
attr title "tx state, vector"
vector 19 scenario.client4.ppp[3].ppp transmissionState:vector ETV
attr interpolationmode sample-hold
attr source transmissionStateChanged
attr title "tx state, vector"
vector 20 scenario.client1.tcp.conn-25 tcpRcvQueueBytes:vector ETV
attr interpolationmode sample-hold
vector 21 scenario.client1.tcp.conn-25 rcvAdv:vector ETV
attr interpolationmode sample-hold
vector 22 scenario.client1.tcp.conn-25 rcvWnd:vector ETV
attr interpolationmode sample-hold
vector 23 scenario.client1.tcp.conn-25 sndAck:vector ETV
attr interpolationmode sample-hold
vector 24 scenario.client1.ppp[2].ppp rcvdPkFromHl:vector(packetBytes) ETV
attr interpolationmode none
attr source packetReceivedFromUpper
attr title "packets received from higher layer, vector(packetBytes)"
vector 25 scenario.client1.ppp[2].ppp.queue packetPushed:vector(packetBytes) ETV
attr interpolationmode none
attr title "packet pushed, vector(packetBytes)"
vector 26 scenario.client1.ppp[2].ppp.queue queueLength:vector ETV
attr interpolationmode sample-hold
attr source "count(packetPushed) - count(packetPopped) - count(packetRemoved) - count(packetDropped)"
attr title "queue length, vector"
vector 27 scenario.client1.ppp[2].ppp.queue packetPopped:vector(packetBytes) ETV
attr interpolationmode none
attr title "packet popped, vector(packetBytes)"
vector 28 scenario.client1.ppp[2].ppp.queue queueingTime:vector ETV
attr interpolationmode none
attr source queueingTime(packetPopped)
attr title "queueing times, vector"
attr unit s
vector 29 scenario.client1.ppp[2].ppp txPk:vector(packetBytes) ETV
attr interpolationmode none
attr source packetSentToLower
attr title "packets transmitted, vector(packetBytes)"
vector 30 scenario.client3.ppp[1].ppp rxPkOk:vector(packetBytes) ETV
attr interpolationmode none
attr source rxPkOk
attr title "packets received OK, vector(packetBytes)"
vector 31 scenario.client3.ppp[1].ppp passedUpPk:vector(packetBytes) ETV
attr interpolationmode none
attr source packetSentToUpper
attr title "packets passed to higher layer, vector(packetBytes)"
vector 32 scenario.client3.tcp.conn-3 rcvSeq:vector ETV
attr interpolationmode sample-hold
vector 33 scenario.client3.tcp.conn-3 rcvAck:vector ETV
attr interpolationmode sample-hold
vector 34 scenario.client3.tcp.conn-26 rcvAdv:vector ETV
attr interpolationmode sample-hold
vector 35 scenario.client3.tcp.conn-26 sndWnd:vector ETV
attr interpolationmode sample-hold
vector 36 scenario.client3.tcp.conn-26 tcpRcvQueueBytes:vector ETV
attr interpolationmode sample-hold
vector 37 scenario.client3.tcp.conn-26 rcvWnd:vector ETV
attr interpolationmode sample-hold
vector 38 scenario.client3.tcp.conn-26 sndAck:vector ETV
attr interpolationmode sample-hold
vector 39 scenario.client3.ppp[1].ppp rcvdPkFromHl:vector(packetBytes) ETV
attr interpolationmode none
attr source packetReceivedFromUpper
attr title "packets received from higher layer, vector(packetBytes)"
vector 40 scenario.client3.ppp[1].ppp.queue packetPushed:vector(packetBytes) ETV
attr interpolationmode none
attr title "packet pushed, vector(packetBytes)"
vector 41 scenario.client3.ppp[1].ppp.queue queueLength:vector ETV
attr interpolationmode sample-hold
attr source "count(packetPushed) - count(packetPopped) - count(packetRemoved) - count(packetDropped)"
attr title "queue length, vector"
vector 42 scenario.client3.ppp[1].ppp.queue packetPopped:vector(packetBytes) ETV
attr interpolationmode none
attr title "packet popped, vector(packetBytes)"
vector 43 scenario.client3.ppp[1].ppp.queue queueingTime:vector ETV
attr interpolationmode none
attr source queueingTime(packetPopped)
attr title "queueing times, vector"
attr unit s
vector 44 scenario.client3.ppp[1].ppp txPk:vector(packetBytes) ETV
attr interpolationmode none
attr source packetSentToLower
attr title "packets transmitted, vector(packetBytes)"
vector 45 scenario.client1.ppp[2].ppp rxPkOk:vector(packetBytes) ETV
attr interpolationmode none
attr source rxPkOk
attr title "packets received OK, vector(packetBytes)"
vector 46 scenario.client1.ppp[2].ppp passedUpPk:vector(packetBytes) ETV
attr interpolationmode none
attr source packetSentToUpper
attr title "packets passed to higher layer, vector(packetBytes)"
vector 47 scenario.client1.tcp.conn-25 rcvSeq:vector ETV
attr interpolationmode sample-hold
vector 48 scenario.client1.tcp.conn-25 rcvAck:vector ETV
attr interpolationmode sample-hold
vector 49 scenario.client1.tcp.conn-25 sndWnd:vector ETV
attr interpolationmode sample-hold
vector 50 scenario.client1.tcp.conn-25 unacked:vector ETV
attr interpolationmode sample-hold
vector 51 scenario.client3.tcp.conn-26 rcvSeq:vector ETV
attr interpolationmode sample-hold
vector 52 scenario.client3.tcp.conn-26 rcvAck:vector ETV
attr interpolationmode sample-hold
vector 53 scenario.client3.tcp.conn-26 unacked:vector ETV
attr interpolationmode sample-hold
vector 54 scenario.client3.tcp.conn-26 cwnd:vector ETV
attr interpolationmode sample-hold
vector 55 scenario.client3.tcp.conn-26 ssthresh:vector ETV
attr interpolationmode sample-hold
vector 56 scenario.client3.tcp.conn-26 dupAcks:vector ETV
attr interpolationmode sample-hold
vector 57 scenario.client1.tcp.conn-25 rtt:vector ETV
attr interpolationmode sample-hold
vector 58 scenario.client1.tcp.conn-25 srtt:vector ETV
attr interpolationmode sample-hold
vector 59 scenario.client1.tcp.conn-25 rttvar:vector ETV
attr interpolationmode sample-hold
vector 60 scenario.client1.tcp.conn-25 rto:vector ETV
attr interpolationmode sample-hold
vector 61 scenario.client1.tcp.conn-25 cwnd:vector ETV
attr interpolationmode sample-hold
vector 62 scenario.client1.tcp.conn-25 ssthresh:vector ETV
attr interpolationmode sample-hold
vector 63 scenario.client1.tcp.conn-25 dupAcks:vector ETV
attr interpolationmode sample-hold
vector 64 scenario.client1.tcp.conn-27 tcpRcvQueueBytes:vector ETV
attr interpolationmode sample-hold
vector 65 scenario.client1.tcp.conn-27 rcvAdv:vector ETV
attr interpolationmode sample-hold
vector 66 scenario.client1.tcp.conn-27 rcvWnd:vector ETV
attr interpolationmode sample-hold
vector 67 scenario.client1.tcp.conn-27 sndAck:vector ETV
attr interpolationmode sample-hold
vector 68 scenario.client1.ppp[0].ppp rcvdPkFromHl:vector(packetBytes) ETV
attr interpolationmode none
attr source packetReceivedFromUpper
attr title "packets received from higher layer, vector(packetBytes)"
vector 69 scenario.client1.ppp[0].ppp.queue packetPushed:vector(packetBytes) ETV
attr interpolationmode none
attr title "packet pushed, vector(packetBytes)"
vector 70 scenario.client1.ppp[0].ppp.queue queueLength:vector ETV
attr interpolationmode sample-hold
attr source "count(packetPushed) - count(packetPopped) - count(packetRemoved) - count(packetDropped)"
attr title "queue length, vector"
vector 71 scenario.client1.ppp[0].ppp.queue packetPopped:vector(packetBytes) ETV
attr interpolationmode none
attr title "packet popped, vector(packetBytes)"
vector 72 scenario.client1.ppp[0].ppp.queue queueingTime:vector ETV
attr interpolationmode none
attr source queueingTime(packetPopped)
attr title "queueing times, vector"
attr unit s
vector 73 scenario.client1.ppp[0].ppp txPk:vector(packetBytes) ETV
attr interpolationmode none
attr source packetSentToLower
attr title "packets transmitted, vector(packetBytes)"
vector 74 scenario.client0.ppp[0].ppp rxPkOk:vector(packetBytes) ETV
attr interpolationmode none
attr source rxPkOk
attr title "packets received OK, vector(packetBytes)"
vector 75 scenario.client0.ppp[0].ppp passedUpPk:vector(packetBytes) ETV
attr interpolationmode none
attr source packetSentToUpper
attr title "packets passed to higher layer, vector(packetBytes)"
vector 76 scenario.client0.tcp.conn-0 rcvSeq:vector ETV
attr interpolationmode sample-hold
vector 77 scenario.client0.tcp.conn-0 rcvAck:vector ETV
attr interpolationmode sample-hold
vector 78 scenario.client0.tcp.conn-28 rcvAdv:vector ETV
attr interpolationmode sample-hold
vector 79 scenario.client0.tcp.conn-28 sndWnd:vector ETV
attr interpolationmode sample-hold
vector 80 scenario.client0.tcp.conn-28 tcpRcvQueueBytes:vector ETV
attr interpolationmode sample-hold
vector 81 scenario.client0.tcp.conn-28 rcvWnd:vector ETV
attr interpolationmode sample-hold
vector 82 scenario.client0.tcp.conn-28 sndAck:vector ETV
attr interpolationmode sample-hold
vector 83 scenario.client0.ppp[0].ppp rcvdPkFromHl:vector(packetBytes) ETV
attr interpolationmode none
attr source packetReceivedFromUpper
attr title "packets received from higher layer, vector(packetBytes)"
vector 84 scenario.client0.ppp[0].ppp.queue packetPushed:vector(packetBytes) ETV
attr interpolationmode none
attr title "packet pushed, vector(packetBytes)"
vector 85 scenario.client0.ppp[0].ppp.queue queueLength:vector ETV
attr interpolationmode sample-hold
attr source "count(packetPushed) - count(packetPopped) - count(packetRemoved) - count(packetDropped)"
attr title "queue length, vector"
vector 86 scenario.client0.ppp[0].ppp.queue packetPopped:vector(packetBytes) ETV
attr interpolationmode none
attr title "packet popped, vector(packetBytes)"
vector 87 scenario.client0.ppp[0].ppp.queue queueingTime:vector ETV
attr interpolationmode none
attr source queueingTime(packetPopped)
attr title "queueing times, vector"
attr unit s
vector 88 scenario.client0.ppp[0].ppp txPk:vector(packetBytes) ETV
attr interpolationmode none
attr source packetSentToLower
attr title "packets transmitted, vector(packetBytes)"
vector 89 scenario.client1.ppp[0].ppp rxPkOk:vector(packetBytes) ETV
attr interpolationmode none
attr source rxPkOk
attr title "packets received OK, vector(packetBytes)"
vector 90 scenario.client1.ppp[0].ppp passedUpPk:vector(packetBytes) ETV
attr interpolationmode none
attr source packetSentToUpper
attr title "packets passed to higher layer, vector(packetBytes)"
vector 91 scenario.client1.tcp.conn-27 rcvSeq:vector ETV
attr interpolationmode sample-hold
vector 92 scenario.client1.tcp.conn-27 rcvAck:vector ETV
attr interpolationmode sample-hold
vector 93 scenario.client1.tcp.conn-27 sndWnd:vector ETV
attr interpolationmode sample-hold
vector 94 scenario.client1.tcp.conn-27 unacked:vector ETV
attr interpolationmode sample-hold
vector 95 scenario.client0.tcp.conn-28 rcvSeq:vector ETV
attr interpolationmode sample-hold
vector 96 scenario.client0.tcp.conn-28 rcvAck:vector ETV
attr interpolationmode sample-hold
vector 97 scenario.client0.tcp.conn-28 unacked:vector ETV
attr interpolationmode sample-hold
vector 98 scenario.client0.tcp.conn-28 cwnd:vector ETV
attr interpolationmode sample-hold
vector 99 scenario.client0.tcp.conn-28 ssthresh:vector ETV
attr interpolationmode sample-hold
vector 100 scenario.client0.tcp.conn-28 dupAcks:vector ETV
attr interpolationmode sample-hold
vector 101 scenario.client1.tcp.conn-27 rtt:vector ETV
attr interpolationmode sample-hold
vector 102 scenario.client1.tcp.conn-27 srtt:vector ETV
attr interpolationmode sample-hold
vector 103 scenario.client1.tcp.conn-27 rttvar:vector ETV
attr interpolationmode sample-hold
vector 104 scenario.client1.tcp.conn-27 rto:vector ETV
attr interpolationmode sample-hold
vector 105 scenario.client1.tcp.conn-27 cwnd:vector ETV
attr interpolationmode sample-hold
vector 106 scenario.client1.tcp.conn-27 ssthresh:vector ETV
attr interpolationmode sample-hold
vector 107 scenario.client1.tcp.conn-27 dupAcks:vector ETV
attr interpolationmode sample-hold
vector 108 scenario.client1.tcp.conn-29 tcpRcvQueueBytes:vector ETV
attr interpolationmode sample-hold
vector 109 scenario.client1.tcp.conn-29 rcvAdv:vector ETV
attr interpolationmode sample-hold
vector 110 scenario.client1.tcp.conn-29 rcvWnd:vector ETV
attr interpolationmode sample-hold
vector 111 scenario.client1.tcp.conn-29 sndAck:vector ETV
attr interpolationmode sample-hold
vector 112 scenario.client1.ppp[3].ppp rcvdPkFromHl:vector(packetBytes) ETV
attr interpolationmode none
attr source packetReceivedFromUpper
attr title "packets received from higher layer, vector(packetBytes)"
vector 113 scenario.client1.ppp[3].ppp.queue packetPushed:vector(packetBytes) ETV
attr interpolationmode none
attr title "packet pushed, vector(packetBytes)"
vector 114 scenario.client1.ppp[3].ppp.queue queueLength:vector ETV
attr interpolationmode sample-hold
attr source "count(packetPushed) - count(packetPopped) - count(packetRemoved) - count(packetDropped)"
attr title "queue length, vector"
vector 115 scenario.client1.ppp[3].ppp.queue packetPopped:vector(packetBytes) ETV
attr interpolationmode none
attr title "packet popped, vector(packetBytes)"
vector 116 scenario.client1.ppp[3].ppp.queue queueingTime:vector ETV
attr interpolationmode none
attr source queueingTime(packetPopped)
attr title "queueing times, vector"
attr unit s
vector 117 scenario.client1.ppp[3].ppp txPk:vector(packetBytes) ETV
attr interpolationmode none
attr source packetSentToLower
attr title "packets transmitted, vector(packetBytes)"
vector 118 scenario.client4.ppp[1].ppp rxPkOk:vector(packetBytes) ETV
attr interpolationmode none
attr source rxPkOk
attr title "packets received OK, vector(packetBytes)"
vector 119 scenario.client4.ppp[1].ppp passedUpPk:vector(packetBytes) ETV
attr interpolationmode none
attr source packetSentToUpper
attr title "packets passed to higher layer, vector(packetBytes)"
vector 120 scenario.client4.tcp.conn-4 rcvSeq:vector ETV
attr interpolationmode sample-hold
vector 121 scenario.client4.tcp.conn-4 rcvAck:vector ETV
attr interpolationmode sample-hold
vector 122 scenario.client4.tcp.conn-30 rcvAdv:vector ETV
attr interpolationmode sample-hold
vector 123 scenario.client4.tcp.conn-30 sndWnd:vector ETV
attr interpolationmode sample-hold
vector 124 scenario.client4.tcp.conn-30 tcpRcvQueueBytes:vector ETV
attr interpolationmode sample-hold
vector 125 scenario.client4.tcp.conn-30 rcvWnd:vector ETV
attr interpolationmode sample-hold
vector 126 scenario.client4.tcp.conn-30 sndAck:vector ETV
attr interpolationmode sample-hold
vector 127 scenario.client4.ppp[1].ppp rcvdPkFromHl:vector(packetBytes) ETV
attr interpolationmode none
attr source packetReceivedFromUpper
attr title "packets received from higher layer, vector(packetBytes)"
vector 128 scenario.client4.ppp[1].ppp.queue packetPushed:vector(packetBytes) ETV
attr interpolationmode none
attr title "packet pushed, vector(packetBytes)"
vector 129 scenario.client4.ppp[1].ppp.queue queueLength:vector ETV
attr interpolationmode sample-hold
attr source "count(packetPushed) - count(packetPopped) - count(packetRemoved) - count(packetDropped)"
attr title "queue length, vector"
vector 130 scenario.client4.ppp[1].ppp.queue packetPopped:vector(packetBytes) ETV
attr interpolationmode none
attr title "packet popped, vector(packetBytes)"
vector 131 scenario.client4.ppp[1].ppp.queue queueingTime:vector ETV
attr interpolationmode none
attr source queueingTime(packetPopped)
attr title "queueing times, vector"
attr unit s
vector 132 scenario.client4.ppp[1].ppp txPk:vector(packetBytes) ETV
attr interpolationmode none
attr source packetSentToLower
attr title "packets transmitted, vector(packetBytes)"
vector 133 scenario.client1.ppp[3].ppp rxPkOk:vector(packetBytes) ETV
attr interpolationmode none
attr source rxPkOk
attr title "packets received OK, vector(packetBytes)"
vector 134 scenario.client1.ppp[3].ppp passedUpPk:vector(packetBytes) ETV
attr interpolationmode none
attr source packetSentToUpper
attr title "packets passed to higher layer, vector(packetBytes)"
vector 135 scenario.client1.tcp.conn-29 rcvSeq:vector ETV
attr interpolationmode sample-hold
vector 136 scenario.client1.tcp.conn-29 rcvAck:vector ETV
attr interpolationmode sample-hold
vector 137 scenario.client1.tcp.conn-29 sndWnd:vector ETV
attr interpolationmode sample-hold
vector 138 scenario.client1.tcp.conn-29 unacked:vector ETV
attr interpolationmode sample-hold
vector 139 scenario.client4.tcp.conn-30 rcvSeq:vector ETV
attr interpolationmode sample-hold
vector 140 scenario.client4.tcp.conn-30 rcvAck:vector ETV
attr interpolationmode sample-hold
vector 141 scenario.client4.tcp.conn-30 unacked:vector ETV
attr interpolationmode sample-hold
vector 142 scenario.client4.tcp.conn-30 cwnd:vector ETV
attr interpolationmode sample-hold
vector 143 scenario.client4.tcp.conn-30 ssthresh:vector ETV
attr interpolationmode sample-hold
vector 144 scenario.client4.tcp.conn-30 dupAcks:vector ETV
attr interpolationmode sample-hold
vector 145 scenario.client1.tcp.conn-29 rtt:vector ETV
attr interpolationmode sample-hold
vector 146 scenario.client1.tcp.conn-29 srtt:vector ETV
attr interpolationmode sample-hold
vector 147 scenario.client1.tcp.conn-29 rttvar:vector ETV
attr interpolationmode sample-hold
vector 148 scenario.client1.tcp.conn-29 rto:vector ETV
attr interpolationmode sample-hold
vector 149 scenario.client1.tcp.conn-29 cwnd:vector ETV
attr interpolationmode sample-hold
vector 150 scenario.client1.tcp.conn-29 ssthresh:vector ETV
attr interpolationmode sample-hold
vector 151 scenario.client1.tcp.conn-29 dupAcks:vector ETV
attr interpolationmode sample-hold
vector 152 scenario.client1.tcp.conn-31 tcpRcvQueueBytes:vector ETV
attr interpolationmode sample-hold
vector 153 scenario.client1.tcp.conn-31 rcvAdv:vector ETV
attr interpolationmode sample-hold
vector 154 scenario.client1.tcp.conn-31 rcvWnd:vector ETV
attr interpolationmode sample-hold
vector 155 scenario.client1.tcp.conn-31 sndAck:vector ETV
attr interpolationmode sample-hold
vector 156 scenario.client1.ppp[1].ppp rcvdPkFromHl:vector(packetBytes) ETV
attr interpolationmode none
attr source packetReceivedFromUpper
attr title "packets received from higher layer, vector(packetBytes)"
vector 157 scenario.client1.ppp[1].ppp.queue packetPushed:vector(packetBytes) ETV
attr interpolationmode none
attr title "packet pushed, vector(packetBytes)"
vector 158 scenario.client1.ppp[1].ppp.queue queueLength:vector ETV
attr interpolationmode sample-hold
attr source "count(packetPushed) - count(packetPopped) - count(packetRemoved) - count(packetDropped)"
attr title "queue length, vector"
vector 159 scenario.client1.ppp[1].ppp.queue packetPopped:vector(packetBytes) ETV
attr interpolationmode none
attr title "packet popped, vector(packetBytes)"
vector 160 scenario.client1.ppp[1].ppp.queue queueingTime:vector ETV
attr interpolationmode none
attr source queueingTime(packetPopped)
attr title "queueing times, vector"
attr unit s
vector 161 scenario.client1.ppp[1].ppp txPk:vector(packetBytes) ETV
attr interpolationmode none
attr source packetSentToLower
attr title "packets transmitted, vector(packetBytes)"
vector 162 scenario.client2.ppp[1].ppp rxPkOk:vector(packetBytes) ETV
attr interpolationmode none
attr source rxPkOk
attr title "packets received OK, vector(packetBytes)"
vector 163 scenario.client2.ppp[1].ppp passedUpPk:vector(packetBytes) ETV
attr interpolationmode none
attr source packetSentToUpper
attr title "packets passed to higher layer, vector(packetBytes)"
vector 164 scenario.client2.tcp.conn-2 rcvSeq:vector ETV
attr interpolationmode sample-hold
vector 165 scenario.client2.tcp.conn-2 rcvAck:vector ETV
attr interpolationmode sample-hold
vector 166 scenario.client2.tcp.conn-32 rcvAdv:vector ETV
attr interpolationmode sample-hold
vector 167 scenario.client2.tcp.conn-32 sndWnd:vector ETV
attr interpolationmode sample-hold
vector 168 scenario.client2.tcp.conn-32 tcpRcvQueueBytes:vector ETV
attr interpolationmode sample-hold
vector 169 scenario.client2.tcp.conn-32 rcvWnd:vector ETV
attr interpolationmode sample-hold
vector 170 scenario.client2.tcp.conn-32 sndAck:vector ETV
attr interpolationmode sample-hold
vector 171 scenario.client2.ppp[1].ppp rcvdPkFromHl:vector(packetBytes) ETV
attr interpolationmode none
attr source packetReceivedFromUpper
attr title "packets received from higher layer, vector(packetBytes)"
vector 172 scenario.client2.ppp[1].ppp.queue packetPushed:vector(packetBytes) ETV
attr interpolationmode none
attr title "packet pushed, vector(packetBytes)"
vector 173 scenario.client2.ppp[1].ppp.queue queueLength:vector ETV
attr interpolationmode sample-hold
attr source "count(packetPushed) - count(packetPopped) - count(packetRemoved) - count(packetDropped)"
attr title "queue length, vector"
vector 174 scenario.client2.ppp[1].ppp.queue packetPopped:vector(packetBytes) ETV
attr interpolationmode none
attr title "packet popped, vector(packetBytes)"
vector 175 scenario.client2.ppp[1].ppp.queue queueingTime:vector ETV
attr interpolationmode none
attr source queueingTime(packetPopped)
attr title "queueing times, vector"
attr unit s
vector 176 scenario.client2.ppp[1].ppp txPk:vector(packetBytes) ETV
attr interpolationmode none
attr source packetSentToLower
attr title "packets transmitted, vector(packetBytes)"
vector 177 scenario.client1.ppp[1].ppp rxPkOk:vector(packetBytes) ETV
attr interpolationmode none
attr source rxPkOk
attr title "packets received OK, vector(packetBytes)"
vector 178 scenario.client1.ppp[1].ppp passedUpPk:vector(packetBytes) ETV
attr interpolationmode none
attr source packetSentToUpper
attr title "packets passed to higher layer, vector(packetBytes)"
vector 179 scenario.client1.tcp.conn-31 rcvSeq:vector ETV
attr interpolationmode sample-hold
vector 180 scenario.client1.tcp.conn-31 rcvAck:vector ETV
attr interpolationmode sample-hold
vector 181 scenario.client1.tcp.conn-31 sndWnd:vector ETV
attr interpolationmode sample-hold
vector 182 scenario.client1.tcp.conn-31 unacked:vector ETV
attr interpolationmode sample-hold
vector 183 scenario.client2.tcp.conn-32 rcvSeq:vector ETV
attr interpolationmode sample-hold
vector 184 scenario.client2.tcp.conn-32 rcvAck:vector ETV
attr interpolationmode sample-hold
vector 185 scenario.client2.tcp.conn-32 unacked:vector ETV
attr interpolationmode sample-hold
vector 186 scenario.client2.tcp.conn-32 cwnd:vector ETV
attr interpolationmode sample-hold
vector 187 scenario.client2.tcp.conn-32 ssthresh:vector ETV
attr interpolationmode sample-hold
vector 188 scenario.client2.tcp.conn-32 dupAcks:vector ETV
attr interpolationmode sample-hold
vector 189 scenario.client1.tcp.conn-31 rtt:vector ETV
attr interpolationmode sample-hold
vector 190 scenario.client1.tcp.conn-31 srtt:vector ETV
attr interpolationmode sample-hold
vector 191 scenario.client1.tcp.conn-31 rttvar:vector ETV
attr interpolationmode sample-hold
vector 192 scenario.client1.tcp.conn-31 rto:vector ETV
attr interpolationmode sample-hold
vector 193 scenario.client1.tcp.conn-31 cwnd:vector ETV
attr interpolationmode sample-hold
vector 194 scenario.client1.tcp.conn-31 ssthresh:vector ETV
attr interpolationmode sample-hold
vector 195 scenario.client1.tcp.conn-31 dupAcks:vector ETV
attr interpolationmode sample-hold
vector 196 scenario.client0.tcp.conn-33 tcpRcvQueueBytes:vector ETV
attr interpolationmode sample-hold
vector 197 scenario.client0.tcp.conn-33 rcvAdv:vector ETV
attr interpolationmode sample-hold
vector 198 scenario.client0.tcp.conn-33 rcvWnd:vector ETV
attr interpolationmode sample-hold
vector 199 scenario.client0.tcp.conn-33 sndAck:vector ETV
attr interpolationmode sample-hold
vector 200 scenario.client1.tcp.conn-1 rcvSeq:vector ETV
attr interpolationmode sample-hold
vector 201 scenario.client1.tcp.conn-1 rcvAck:vector ETV
attr interpolationmode sample-hold
vector 202 scenario.client1.tcp.conn-34 rcvAdv:vector ETV
attr interpolationmode sample-hold
vector 203 scenario.client1.tcp.conn-34 sndWnd:vector ETV
attr interpolationmode sample-hold
vector 204 scenario.client1.tcp.conn-34 tcpRcvQueueBytes:vector ETV
attr interpolationmode sample-hold
vector 205 scenario.client1.tcp.conn-34 rcvWnd:vector ETV
attr interpolationmode sample-hold
vector 206 scenario.client1.tcp.conn-34 sndAck:vector ETV
attr interpolationmode sample-hold
vector 207 scenario.client0.tcp.conn-33 rcvSeq:vector ETV
attr interpolationmode sample-hold
vector 208 scenario.client0.tcp.conn-33 rcvAck:vector ETV
attr interpolationmode sample-hold
vector 209 scenario.client0.tcp.conn-33 sndWnd:vector ETV
attr interpolationmode sample-hold
vector 210 scenario.client0.tcp.conn-33 unacked:vector ETV
attr interpolationmode sample-hold
vector 211 scenario.client1.tcp.conn-34 rcvSeq:vector ETV
attr interpolationmode sample-hold
vector 212 scenario.client1.tcp.conn-34 rcvAck:vector ETV
attr interpolationmode sample-hold
vector 213 scenario.client1.tcp.conn-34 unacked:vector ETV
attr interpolationmode sample-hold
vector 214 scenario.client1.tcp.conn-34 cwnd:vector ETV
attr interpolationmode sample-hold
vector 215 scenario.client1.tcp.conn-34 ssthresh:vector ETV
attr interpolationmode sample-hold
vector 216 scenario.client1.tcp.conn-34 dupAcks:vector ETV
attr interpolationmode sample-hold
vector 217 scenario.client0.tcp.conn-33 rtt:vector ETV
attr interpolationmode sample-hold
vector 218 scenario.client0.tcp.conn-33 srtt:vector ETV
attr interpolationmode sample-hold
vector 219 scenario.client0.tcp.conn-33 rttvar:vector ETV
attr interpolationmode sample-hold
vector 220 scenario.client0.tcp.conn-33 rto:vector ETV
attr interpolationmode sample-hold
vector 221 scenario.client0.tcp.conn-33 cwnd:vector ETV
attr interpolationmode sample-hold
vector 222 scenario.client0.tcp.conn-33 ssthresh:vector ETV
attr interpolationmode sample-hold
vector 223 scenario.client0.tcp.conn-33 dupAcks:vector ETV
attr interpolationmode sample-hold
vector 224 scenario.client4.tcp.conn-35 tcpRcvQueueBytes:vector ETV
attr interpolationmode sample-hold
vector 225 scenario.client4.tcp.conn-35 rcvAdv:vector ETV
attr interpolationmode sample-hold
vector 226 scenario.client4.tcp.conn-35 rcvWnd:vector ETV
attr interpolationmode sample-hold
vector 227 scenario.client4.tcp.conn-35 sndAck:vector ETV
attr interpolationmode sample-hold
vector 228 scenario.client1.tcp.conn-36 rcvAdv:vector ETV
attr interpolationmode sample-hold
vector 229 scenario.client1.tcp.conn-36 sndWnd:vector ETV
attr interpolationmode sample-hold
vector 230 scenario.client1.tcp.conn-36 tcpRcvQueueBytes:vector ETV
attr interpolationmode sample-hold
vector 231 scenario.client1.tcp.conn-36 rcvWnd:vector ETV
attr interpolationmode sample-hold
vector 232 scenario.client1.tcp.conn-36 sndAck:vector ETV
attr interpolationmode sample-hold
vector 233 scenario.client4.tcp.conn-35 rcvSeq:vector ETV
attr interpolationmode sample-hold
vector 234 scenario.client4.tcp.conn-35 rcvAck:vector ETV
attr interpolationmode sample-hold
vector 235 scenario.client4.tcp.conn-35 sndWnd:vector ETV
attr interpolationmode sample-hold
vector 236 scenario.client4.tcp.conn-35 unacked:vector ETV
attr interpolationmode sample-hold
vector 237 scenario.client1.tcp.conn-36 rcvSeq:vector ETV
attr interpolationmode sample-hold
vector 238 scenario.client1.tcp.conn-36 rcvAck:vector ETV
attr interpolationmode sample-hold
vector 239 scenario.client1.tcp.conn-36 unacked:vector ETV
attr interpolationmode sample-hold
vector 240 scenario.client1.tcp.conn-36 cwnd:vector ETV
attr interpolationmode sample-hold
vector 241 scenario.client1.tcp.conn-36 ssthresh:vector ETV
attr interpolationmode sample-hold
vector 242 scenario.client1.tcp.conn-36 dupAcks:vector ETV
attr interpolationmode sample-hold
vector 243 scenario.client4.tcp.conn-35 rtt:vector ETV
attr interpolationmode sample-hold
vector 244 scenario.client4.tcp.conn-35 srtt:vector ETV
attr interpolationmode sample-hold
vector 245 scenario.client4.tcp.conn-35 rttvar:vector ETV
attr interpolationmode sample-hold
vector 246 scenario.client4.tcp.conn-35 rto:vector ETV
attr interpolationmode sample-hold
vector 247 scenario.client4.tcp.conn-35 cwnd:vector ETV
attr interpolationmode sample-hold
vector 248 scenario.client4.tcp.conn-35 ssthresh:vector ETV
attr interpolationmode sample-hold
vector 249 scenario.client4.tcp.conn-35 dupAcks:vector ETV
attr interpolationmode sample-hold
vector 250 scenario.client2.tcp.conn-37 tcpRcvQueueBytes:vector ETV
attr interpolationmode sample-hold
vector 251 scenario.client2.tcp.conn-37 rcvAdv:vector ETV
attr interpolationmode sample-hold
vector 252 scenario.client2.tcp.conn-37 rcvWnd:vector ETV
attr interpolationmode sample-hold
vector 253 scenario.client2.tcp.conn-37 sndAck:vector ETV
attr interpolationmode sample-hold
vector 254 scenario.client1.tcp.conn-38 rcvAdv:vector ETV
attr interpolationmode sample-hold
vector 255 scenario.client1.tcp.conn-38 sndWnd:vector ETV
attr interpolationmode sample-hold
vector 256 scenario.client1.tcp.conn-38 tcpRcvQueueBytes:vector ETV
attr interpolationmode sample-hold
vector 257 scenario.client1.tcp.conn-38 rcvWnd:vector ETV
attr interpolationmode sample-hold
vector 258 scenario.client1.tcp.conn-38 sndAck:vector ETV
attr interpolationmode sample-hold
vector 259 scenario.client2.tcp.conn-37 rcvSeq:vector ETV
attr interpolationmode sample-hold
vector 260 scenario.client2.tcp.conn-37 rcvAck:vector ETV
attr interpolationmode sample-hold
vector 261 scenario.client2.tcp.conn-37 sndWnd:vector ETV
attr interpolationmode sample-hold
vector 262 scenario.client2.tcp.conn-37 unacked:vector ETV
attr interpolationmode sample-hold
vector 263 scenario.client1.tcp.conn-38 rcvSeq:vector ETV
attr interpolationmode sample-hold
vector 264 scenario.client1.tcp.conn-38 rcvAck:vector ETV
attr interpolationmode sample-hold
vector 265 scenario.client1.tcp.conn-38 unacked:vector ETV
attr interpolationmode sample-hold
vector 266 scenario.client1.tcp.conn-38 cwnd:vector ETV
attr interpolationmode sample-hold
vector 267 scenario.client1.tcp.conn-38 ssthresh:vector ETV
attr interpolationmode sample-hold
vector 268 scenario.client1.tcp.conn-38 dupAcks:vector ETV
attr interpolationmode sample-hold
vector 269 scenario.client2.tcp.conn-37 rtt:vector ETV
attr interpolationmode sample-hold
vector 270 scenario.client2.tcp.conn-37 srtt:vector ETV
attr interpolationmode sample-hold
vector 271 scenario.client2.tcp.conn-37 rttvar:vector ETV
attr interpolationmode sample-hold
vector 272 scenario.client2.tcp.conn-37 rto:vector ETV
attr interpolationmode sample-hold
vector 273 scenario.client2.tcp.conn-37 cwnd:vector ETV
attr interpolationmode sample-hold
vector 274 scenario.client2.tcp.conn-37 ssthresh:vector ETV
attr interpolationmode sample-hold
vector 275 scenario.client2.tcp.conn-37 dupAcks:vector ETV
attr interpolationmode sample-hold
vector 276 scenario.client3.tcp.conn-39 tcpRcvQueueBytes:vector ETV
attr interpolationmode sample-hold
vector 277 scenario.client3.tcp.conn-39 rcvAdv:vector ETV
attr interpolationmode sample-hold
vector 278 scenario.client3.tcp.conn-39 rcvWnd:vector ETV
attr interpolationmode sample-hold
vector 279 scenario.client3.tcp.conn-39 sndAck:vector ETV
attr interpolationmode sample-hold
vector 280 scenario.client1.tcp.conn-40 rcvAdv:vector ETV
attr interpolationmode sample-hold
vector 281 scenario.client1.tcp.conn-40 sndWnd:vector ETV
attr interpolationmode sample-hold
vector 282 scenario.client1.tcp.conn-40 tcpRcvQueueBytes:vector ETV
attr interpolationmode sample-hold
vector 283 scenario.client1.tcp.conn-40 rcvWnd:vector ETV
attr interpolationmode sample-hold
vector 284 scenario.client1.tcp.conn-40 sndAck:vector ETV
attr interpolationmode sample-hold
vector 285 scenario.client3.tcp.conn-39 rcvSeq:vector ETV
attr interpolationmode sample-hold
vector 286 scenario.client3.tcp.conn-39 rcvAck:vector ETV
attr interpolationmode sample-hold
vector 287 scenario.client3.tcp.conn-39 sndWnd:vector ETV
attr interpolationmode sample-hold
vector 288 scenario.client3.tcp.conn-39 unacked:vector ETV
attr interpolationmode sample-hold
vector 289 scenario.client1.tcp.conn-40 rcvSeq:vector ETV
attr interpolationmode sample-hold
vector 290 scenario.client1.tcp.conn-40 rcvAck:vector ETV
attr interpolationmode sample-hold
vector 291 scenario.client1.tcp.conn-40 unacked:vector ETV
attr interpolationmode sample-hold
vector 292 scenario.client1.tcp.conn-40 cwnd:vector ETV
attr interpolationmode sample-hold
vector 293 scenario.client1.tcp.conn-40 ssthresh:vector ETV
attr interpolationmode sample-hold
vector 294 scenario.client1.tcp.conn-40 dupAcks:vector ETV
attr interpolationmode sample-hold
vector 295 scenario.client3.tcp.conn-39 rtt:vector ETV
attr interpolationmode sample-hold
vector 296 scenario.client3.tcp.conn-39 srtt:vector ETV
attr interpolationmode sample-hold
vector 297 scenario.client3.tcp.conn-39 rttvar:vector ETV
attr interpolationmode sample-hold
vector 298 scenario.client3.tcp.conn-39 rto:vector ETV
attr interpolationmode sample-hold
vector 299 scenario.client3.tcp.conn-39 cwnd:vector ETV
attr interpolationmode sample-hold
vector 300 scenario.client3.tcp.conn-39 ssthresh:vector ETV
attr interpolationmode sample-hold
vector 301 scenario.client3.tcp.conn-39 dupAcks:vector ETV
attr interpolationmode sample-hold
vector 302 scenario.client3.tcp.conn-41 tcpRcvQueueBytes:vector ETV
attr interpolationmode sample-hold
vector 303 scenario.client3.tcp.conn-41 rcvAdv:vector ETV
attr interpolationmode sample-hold
vector 304 scenario.client3.tcp.conn-41 rcvWnd:vector ETV
attr interpolationmode sample-hold
vector 305 scenario.client3.tcp.conn-41 sndAck:vector ETV
attr interpolationmode sample-hold
vector 306 scenario.client3.ppp[0].ppp rcvdPkFromHl:vector(packetBytes) ETV
attr interpolationmode none
attr source packetReceivedFromUpper
attr title "packets received from higher layer, vector(packetBytes)"
vector 307 scenario.client3.ppp[0].ppp.queue packetPushed:vector(packetBytes) ETV
attr interpolationmode none
attr title "packet pushed, vector(packetBytes)"
vector 308 scenario.client3.ppp[0].ppp.queue queueLength:vector ETV
attr interpolationmode sample-hold
attr source "count(packetPushed) - count(packetPopped) - count(packetRemoved) - count(packetDropped)"
attr title "queue length, vector"
vector 309 scenario.client3.ppp[0].ppp.queue packetPopped:vector(packetBytes) ETV
attr interpolationmode none
attr title "packet popped, vector(packetBytes)"
vector 310 scenario.client3.ppp[0].ppp.queue queueingTime:vector ETV
attr interpolationmode none
attr source queueingTime(packetPopped)
attr title "queueing times, vector"
attr unit s
vector 311 scenario.client3.ppp[0].ppp txPk:vector(packetBytes) ETV
attr interpolationmode none
attr source packetSentToLower
attr title "packets transmitted, vector(packetBytes)"
vector 312 scenario.client0.ppp[2].ppp rxPkOk:vector(packetBytes) ETV
attr interpolationmode none
attr source rxPkOk
attr title "packets received OK, vector(packetBytes)"
vector 313 scenario.client0.ppp[2].ppp passedUpPk:vector(packetBytes) ETV
attr interpolationmode none
attr source packetSentToUpper
attr title "packets passed to higher layer, vector(packetBytes)"
vector 314 scenario.client0.tcp.conn-42 rcvAdv:vector ETV
attr interpolationmode sample-hold
vector 315 scenario.client0.tcp.conn-42 sndWnd:vector ETV
attr interpolationmode sample-hold
vector 316 scenario.client0.tcp.conn-42 tcpRcvQueueBytes:vector ETV
attr interpolationmode sample-hold
vector 317 scenario.client0.tcp.conn-42 rcvWnd:vector ETV
attr interpolationmode sample-hold
vector 318 scenario.client0.tcp.conn-42 sndAck:vector ETV
attr interpolationmode sample-hold
vector 319 scenario.client0.ppp[2].ppp rcvdPkFromHl:vector(packetBytes) ETV
attr interpolationmode none
attr source packetReceivedFromUpper
attr title "packets received from higher layer, vector(packetBytes)"
vector 320 scenario.client0.ppp[2].ppp.queue packetPushed:vector(packetBytes) ETV
attr interpolationmode none
attr title "packet pushed, vector(packetBytes)"
vector 321 scenario.client0.ppp[2].ppp.queue queueLength:vector ETV
attr interpolationmode sample-hold
attr source "count(packetPushed) - count(packetPopped) - count(packetRemoved) - count(packetDropped)"
attr title "queue length, vector"
vector 322 scenario.client0.ppp[2].ppp.queue packetPopped:vector(packetBytes) ETV
attr interpolationmode none
attr title "packet popped, vector(packetBytes)"
vector 323 scenario.client0.ppp[2].ppp.queue queueingTime:vector ETV
attr interpolationmode none
attr source queueingTime(packetPopped)
attr title "queueing times, vector"
attr unit s
vector 324 scenario.client0.ppp[2].ppp txPk:vector(packetBytes) ETV
attr interpolationmode none
attr source packetSentToLower
attr title "packets transmitted, vector(packetBytes)"
vector 325 scenario.client3.ppp[0].ppp rxPkOk:vector(packetBytes) ETV
attr interpolationmode none
attr source rxPkOk
attr title "packets received OK, vector(packetBytes)"
vector 326 scenario.client3.ppp[0].ppp passedUpPk:vector(packetBytes) ETV
attr interpolationmode none
attr source packetSentToUpper
attr title "packets passed to higher layer, vector(packetBytes)"
vector 327 scenario.client3.tcp.conn-41 rcvSeq:vector ETV
attr interpolationmode sample-hold
vector 328 scenario.client3.tcp.conn-41 rcvAck:vector ETV
attr interpolationmode sample-hold
vector 329 scenario.client3.tcp.conn-41 sndWnd:vector ETV
attr interpolationmode sample-hold
vector 330 scenario.client3.tcp.conn-41 unacked:vector ETV
attr interpolationmode sample-hold
vector 331 scenario.client0.tcp.conn-42 rcvSeq:vector ETV
attr interpolationmode sample-hold
vector 332 scenario.client0.tcp.conn-42 rcvAck:vector ETV
attr interpolationmode sample-hold
vector 333 scenario.client0.tcp.conn-42 unacked:vector ETV
attr interpolationmode sample-hold
vector 334 scenario.client0.tcp.conn-42 cwnd:vector ETV
attr interpolationmode sample-hold
vector 335 scenario.client0.tcp.conn-42 ssthresh:vector ETV
attr interpolationmode sample-hold
vector 336 scenario.client0.tcp.conn-42 dupAcks:vector ETV
attr interpolationmode sample-hold
vector 337 scenario.client3.tcp.conn-41 rtt:vector ETV
attr interpolationmode sample-hold
vector 338 scenario.client3.tcp.conn-41 srtt:vector ETV
attr interpolationmode sample-hold
vector 339 scenario.client3.tcp.conn-41 rttvar:vector ETV
attr interpolationmode sample-hold
vector 340 scenario.client3.tcp.conn-41 rto:vector ETV
attr interpolationmode sample-hold
vector 341 scenario.client3.tcp.conn-41 cwnd:vector ETV
attr interpolationmode sample-hold
vector 342 scenario.client3.tcp.conn-41 ssthresh:vector ETV
attr interpolationmode sample-hold
vector 343 scenario.client3.tcp.conn-41 dupAcks:vector ETV
attr interpolationmode sample-hold
vector 344 scenario.client0.tcp.conn-43 tcpRcvQueueBytes:vector ETV
attr interpolationmode sample-hold
vector 345 scenario.client0.tcp.conn-43 rcvAdv:vector ETV
attr interpolationmode sample-hold
vector 346 scenario.client0.tcp.conn-43 rcvWnd:vector ETV
attr interpolationmode sample-hold
vector 347 scenario.client0.tcp.conn-43 sndAck:vector ETV
attr interpolationmode sample-hold
vector 348 scenario.client0.ppp[1].ppp rcvdPkFromHl:vector(packetBytes) ETV
attr interpolationmode none
attr source packetReceivedFromUpper
attr title "packets received from higher layer, vector(packetBytes)"
vector 349 scenario.client0.ppp[1].ppp.queue packetPushed:vector(packetBytes) ETV
attr interpolationmode none
attr title "packet pushed, vector(packetBytes)"
vector 350 scenario.client0.ppp[1].ppp.queue queueLength:vector ETV
attr interpolationmode sample-hold
attr source "count(packetPushed) - count(packetPopped) - count(packetRemoved) - count(packetDropped)"
attr title "queue length, vector"
vector 351 scenario.client0.ppp[1].ppp.queue packetPopped:vector(packetBytes) ETV
attr interpolationmode none
attr title "packet popped, vector(packetBytes)"
vector 352 scenario.client0.ppp[1].ppp.queue queueingTime:vector ETV
attr interpolationmode none
attr source queueingTime(packetPopped)
attr title "queueing times, vector"
attr unit s
vector 353 scenario.client0.ppp[1].ppp txPk:vector(packetBytes) ETV
attr interpolationmode none
attr source packetSentToLower
attr title "packets transmitted, vector(packetBytes)"
vector 354 scenario.client2.ppp[0].ppp rxPkOk:vector(packetBytes) ETV
attr interpolationmode none
attr source rxPkOk
attr title "packets received OK, vector(packetBytes)"
vector 355 scenario.client2.ppp[0].ppp passedUpPk:vector(packetBytes) ETV
attr interpolationmode none
attr source packetSentToUpper
attr title "packets passed to higher layer, vector(packetBytes)"
vector 356 scenario.client2.tcp.conn-44 rcvAdv:vector ETV
attr interpolationmode sample-hold
vector 357 scenario.client2.tcp.conn-44 sndWnd:vector ETV
attr interpolationmode sample-hold
vector 358 scenario.client2.tcp.conn-44 tcpRcvQueueBytes:vector ETV
attr interpolationmode sample-hold
vector 359 scenario.client2.tcp.conn-44 rcvWnd:vector ETV
attr interpolationmode sample-hold
vector 360 scenario.client2.tcp.conn-44 sndAck:vector ETV
attr interpolationmode sample-hold
vector 361 scenario.client2.ppp[0].ppp rcvdPkFromHl:vector(packetBytes) ETV
attr interpolationmode none
attr source packetReceivedFromUpper
attr title "packets received from higher layer, vector(packetBytes)"
vector 362 scenario.client2.ppp[0].ppp.queue packetPushed:vector(packetBytes) ETV
attr interpolationmode none
attr title "packet pushed, vector(packetBytes)"
vector 363 scenario.client2.ppp[0].ppp.queue queueLength:vector ETV
attr interpolationmode sample-hold
attr source "count(packetPushed) - count(packetPopped) - count(packetRemoved) - count(packetDropped)"
attr title "queue length, vector"
vector 364 scenario.client2.ppp[0].ppp.queue packetPopped:vector(packetBytes) ETV
attr interpolationmode none
attr title "packet popped, vector(packetBytes)"
vector 365 scenario.client2.ppp[0].ppp.queue queueingTime:vector ETV
attr interpolationmode none
attr source queueingTime(packetPopped)
attr title "queueing times, vector"
attr unit s
vector 366 scenario.client2.ppp[0].ppp txPk:vector(packetBytes) ETV
attr interpolationmode none
attr source packetSentToLower
attr title "packets transmitted, vector(packetBytes)"
vector 367 scenario.client0.ppp[1].ppp rxPkOk:vector(packetBytes) ETV
attr interpolationmode none
attr source rxPkOk
attr title "packets received OK, vector(packetBytes)"
vector 368 scenario.client0.ppp[1].ppp passedUpPk:vector(packetBytes) ETV
attr interpolationmode none
attr source packetSentToUpper
attr title "packets passed to higher layer, vector(packetBytes)"
vector 369 scenario.client0.tcp.conn-43 rcvSeq:vector ETV
attr interpolationmode sample-hold
vector 370 scenario.client0.tcp.conn-43 rcvAck:vector ETV
attr interpolationmode sample-hold
vector 371 scenario.client0.tcp.conn-43 sndWnd:vector ETV
attr interpolationmode sample-hold
vector 372 scenario.client0.tcp.conn-43 unacked:vector ETV
attr interpolationmode sample-hold
vector 373 scenario.client2.tcp.conn-44 rcvSeq:vector ETV
attr interpolationmode sample-hold
vector 374 scenario.client2.tcp.conn-44 rcvAck:vector ETV
attr interpolationmode sample-hold
vector 375 scenario.client2.tcp.conn-44 unacked:vector ETV
attr interpolationmode sample-hold
vector 376 scenario.client2.tcp.conn-44 cwnd:vector ETV
attr interpolationmode sample-hold
vector 377 scenario.client2.tcp.conn-44 ssthresh:vector ETV
attr interpolationmode sample-hold
vector 378 scenario.client2.tcp.conn-44 dupAcks:vector ETV
attr interpolationmode sample-hold
vector 379 scenario.client0.tcp.conn-43 rtt:vector ETV
attr interpolationmode sample-hold
vector 380 scenario.client0.tcp.conn-43 srtt:vector ETV
attr interpolationmode sample-hold
vector 381 scenario.client0.tcp.conn-43 rttvar:vector ETV
attr interpolationmode sample-hold
vector 382 scenario.client0.tcp.conn-43 rto:vector ETV
attr interpolationmode sample-hold
vector 383 scenario.client0.tcp.conn-43 cwnd:vector ETV
attr interpolationmode sample-hold
vector 384 scenario.client0.tcp.conn-43 ssthresh:vector ETV
attr interpolationmode sample-hold
vector 385 scenario.client0.tcp.conn-43 dupAcks:vector ETV
attr interpolationmode sample-hold
vector 386 scenario.client2.tcp.conn-45 tcpRcvQueueBytes:vector ETV
attr interpolationmode sample-hold
vector 387 scenario.client2.tcp.conn-45 rcvAdv:vector ETV
attr interpolationmode sample-hold
vector 388 scenario.client2.tcp.conn-45 rcvWnd:vector ETV
attr interpolationmode sample-hold
vector 389 scenario.client2.tcp.conn-45 sndAck:vector ETV
attr interpolationmode sample-hold
vector 390 scenario.client2.ppp[2].ppp rcvdPkFromHl:vector(packetBytes) ETV
attr interpolationmode none
attr source packetReceivedFromUpper
attr title "packets received from higher layer, vector(packetBytes)"
vector 391 scenario.client2.ppp[2].ppp.queue packetPushed:vector(packetBytes) ETV
attr interpolationmode none
attr title "packet pushed, vector(packetBytes)"
vector 392 scenario.client2.ppp[2].ppp.queue queueLength:vector ETV
attr interpolationmode sample-hold
attr source "count(packetPushed) - count(packetPopped) - count(packetRemoved) - count(packetDropped)"
attr title "queue length, vector"
vector 393 scenario.client2.ppp[2].ppp.queue packetPopped:vector(packetBytes) ETV
attr interpolationmode none
attr title "packet popped, vector(packetBytes)"
vector 394 scenario.client2.ppp[2].ppp.queue queueingTime:vector ETV
attr interpolationmode none
attr source queueingTime(packetPopped)
attr title "queueing times, vector"
attr unit s
vector 395 scenario.client2.ppp[2].ppp txPk:vector(packetBytes) ETV
attr interpolationmode none
attr source packetSentToLower
attr title "packets transmitted, vector(packetBytes)"
vector 396 scenario.client3.ppp[2].ppp rxPkOk:vector(packetBytes) ETV
attr interpolationmode none
attr source rxPkOk
attr title "packets received OK, vector(packetBytes)"
vector 397 scenario.client3.ppp[2].ppp passedUpPk:vector(packetBytes) ETV
attr interpolationmode none
attr source packetSentToUpper
attr title "packets passed to higher layer, vector(packetBytes)"
vector 398 scenario.client3.tcp.conn-46 rcvAdv:vector ETV
attr interpolationmode sample-hold
vector 399 scenario.client3.tcp.conn-46 sndWnd:vector ETV
attr interpolationmode sample-hold
vector 400 scenario.client3.tcp.conn-46 tcpRcvQueueBytes:vector ETV
attr interpolationmode sample-hold
vector 401 scenario.client3.tcp.conn-46 rcvWnd:vector ETV
attr interpolationmode sample-hold
vector 402 scenario.client3.tcp.conn-46 sndAck:vector ETV
attr interpolationmode sample-hold
vector 403 scenario.client3.ppp[2].ppp rcvdPkFromHl:vector(packetBytes) ETV
attr interpolationmode none
attr source packetReceivedFromUpper
attr title "packets received from higher layer, vector(packetBytes)"
vector 404 scenario.client3.ppp[2].ppp.queue packetPushed:vector(packetBytes) ETV
attr interpolationmode none
attr title "packet pushed, vector(packetBytes)"
vector 405 scenario.client3.ppp[2].ppp.queue queueLength:vector ETV
attr interpolationmode sample-hold
attr source "count(packetPushed) - count(packetPopped) - count(packetRemoved) - count(packetDropped)"
attr title "queue length, vector"
vector 406 scenario.client3.ppp[2].ppp.queue packetPopped:vector(packetBytes) ETV
attr interpolationmode none
attr title "packet popped, vector(packetBytes)"
vector 407 scenario.client3.ppp[2].ppp.queue queueingTime:vector ETV
attr interpolationmode none
attr source queueingTime(packetPopped)
attr title "queueing times, vector"
attr unit s
vector 408 scenario.client3.ppp[2].ppp txPk:vector(packetBytes) ETV
attr interpolationmode none
attr source packetSentToLower
attr title "packets transmitted, vector(packetBytes)"
vector 409 scenario.client2.ppp[2].ppp rxPkOk:vector(packetBytes) ETV
attr interpolationmode none
attr source rxPkOk
attr title "packets received OK, vector(packetBytes)"
vector 410 scenario.client2.ppp[2].ppp passedUpPk:vector(packetBytes) ETV
attr interpolationmode none
attr source packetSentToUpper
attr title "packets passed to higher layer, vector(packetBytes)"
vector 411 scenario.client2.tcp.conn-45 rcvSeq:vector ETV
attr interpolationmode sample-hold
vector 412 scenario.client2.tcp.conn-45 rcvAck:vector ETV
attr interpolationmode sample-hold
vector 413 scenario.client2.tcp.conn-45 sndWnd:vector ETV
attr interpolationmode sample-hold
vector 414 scenario.client2.tcp.conn-45 unacked:vector ETV
attr interpolationmode sample-hold
vector 415 scenario.client3.tcp.conn-46 rcvSeq:vector ETV
attr interpolationmode sample-hold
vector 416 scenario.client3.tcp.conn-46 rcvAck:vector ETV
attr interpolationmode sample-hold
vector 417 scenario.client3.tcp.conn-46 unacked:vector ETV
attr interpolationmode sample-hold
vector 418 scenario.client3.tcp.conn-46 cwnd:vector ETV
attr interpolationmode sample-hold
vector 419 scenario.client3.tcp.conn-46 ssthresh:vector ETV
attr interpolationmode sample-hold
vector 420 scenario.client3.tcp.conn-46 dupAcks:vector ETV
attr interpolationmode sample-hold
vector 421 scenario.client2.tcp.conn-45 rtt:vector ETV
attr interpolationmode sample-hold
vector 422 scenario.client2.tcp.conn-45 srtt:vector ETV
attr interpolationmode sample-hold
vector 423 scenario.client2.tcp.conn-45 rttvar:vector ETV
attr interpolationmode sample-hold
vector 424 scenario.client2.tcp.conn-45 rto:vector ETV
attr interpolationmode sample-hold
vector 425 scenario.client2.tcp.conn-45 cwnd:vector ETV
attr interpolationmode sample-hold
vector 426 scenario.client2.tcp.conn-45 ssthresh:vector ETV
attr interpolationmode sample-hold
vector 427 scenario.client2.tcp.conn-45 dupAcks:vector ETV
attr interpolationmode sample-hold
vector 428 scenario.client4.tcp.conn-47 tcpRcvQueueBytes:vector ETV
attr interpolationmode sample-hold
vector 429 scenario.client4.tcp.conn-47 rcvAdv:vector ETV
attr interpolationmode sample-hold
vector 430 scenario.client4.tcp.conn-47 rcvWnd:vector ETV
attr interpolationmode sample-hold
vector 431 scenario.client4.tcp.conn-47 sndAck:vector ETV
attr interpolationmode sample-hold
vector 432 scenario.client4.ppp[2].ppp rcvdPkFromHl:vector(packetBytes) ETV
attr interpolationmode none
attr source packetReceivedFromUpper
attr title "packets received from higher layer, vector(packetBytes)"
vector 433 scenario.client4.ppp[2].ppp.queue packetPushed:vector(packetBytes) ETV
attr interpolationmode none
attr title "packet pushed, vector(packetBytes)"
vector 434 scenario.client4.ppp[2].ppp.queue queueLength:vector ETV
attr interpolationmode sample-hold
attr source "count(packetPushed) - count(packetPopped) - count(packetRemoved) - count(packetDropped)"
attr title "queue length, vector"
vector 435 scenario.client4.ppp[2].ppp.queue packetPopped:vector(packetBytes) ETV
attr interpolationmode none
attr title "packet popped, vector(packetBytes)"
vector 436 scenario.client4.ppp[2].ppp.queue queueingTime:vector ETV
attr interpolationmode none
attr source queueingTime(packetPopped)
attr title "queueing times, vector"
attr unit s
vector 437 scenario.client4.ppp[2].ppp txPk:vector(packetBytes) ETV
attr interpolationmode none
attr source packetSentToLower
attr title "packets transmitted, vector(packetBytes)"
vector 438 scenario.client3.tcp.conn-48 tcpRcvQueueBytes:vector ETV
attr interpolationmode sample-hold
vector 439 scenario.client3.tcp.conn-48 rcvAdv:vector ETV
attr interpolationmode sample-hold
vector 440 scenario.client3.tcp.conn-48 rcvWnd:vector ETV
attr interpolationmode sample-hold
vector 441 scenario.client3.tcp.conn-48 sndAck:vector ETV
attr interpolationmode sample-hold
vector 442 scenario.client2.ppp[3].ppp rxPkOk:vector(packetBytes) ETV
attr interpolationmode none
attr source rxPkOk
attr title "packets received OK, vector(packetBytes)"
vector 443 scenario.client2.ppp[3].ppp passedUpPk:vector(packetBytes) ETV
attr interpolationmode none
attr source packetSentToUpper
attr title "packets passed to higher layer, vector(packetBytes)"
vector 444 scenario.client2.tcp.conn-49 rcvAdv:vector ETV
attr interpolationmode sample-hold
vector 445 scenario.client2.tcp.conn-49 sndWnd:vector ETV
attr interpolationmode sample-hold
vector 446 scenario.client2.tcp.conn-49 tcpRcvQueueBytes:vector ETV
attr interpolationmode sample-hold
vector 447 scenario.client2.tcp.conn-49 rcvWnd:vector ETV
attr interpolationmode sample-hold
vector 448 scenario.client2.tcp.conn-49 sndAck:vector ETV
attr interpolationmode sample-hold
vector 449 scenario.client2.ppp[3].ppp rcvdPkFromHl:vector(packetBytes) ETV
attr interpolationmode none
attr source packetReceivedFromUpper
attr title "packets received from higher layer, vector(packetBytes)"
vector 450 scenario.client2.ppp[3].ppp.queue packetPushed:vector(packetBytes) ETV
attr interpolationmode none
attr title "packet pushed, vector(packetBytes)"
vector 451 scenario.client2.ppp[3].ppp.queue queueLength:vector ETV
attr interpolationmode sample-hold
attr source "count(packetPushed) - count(packetPopped) - count(packetRemoved) - count(packetDropped)"
attr title "queue length, vector"
vector 452 scenario.client2.ppp[3].ppp.queue packetPopped:vector(packetBytes) ETV
attr interpolationmode none
attr title "packet popped, vector(packetBytes)"
vector 453 scenario.client2.ppp[3].ppp.queue queueingTime:vector ETV
attr interpolationmode none
attr source queueingTime(packetPopped)
attr title "queueing times, vector"
attr unit s
vector 454 scenario.client2.ppp[3].ppp txPk:vector(packetBytes) ETV
attr interpolationmode none
attr source packetSentToLower
attr title "packets transmitted, vector(packetBytes)"
vector 455 scenario.client2.tcp.conn-50 rcvAdv:vector ETV
attr interpolationmode sample-hold
vector 456 scenario.client2.tcp.conn-50 sndWnd:vector ETV
attr interpolationmode sample-hold
vector 457 scenario.client2.tcp.conn-50 tcpRcvQueueBytes:vector ETV
attr interpolationmode sample-hold
vector 458 scenario.client2.tcp.conn-50 rcvWnd:vector ETV
attr interpolationmode sample-hold
vector 459 scenario.client2.tcp.conn-50 sndAck:vector ETV
attr interpolationmode sample-hold
vector 460 scenario.client4.ppp[2].ppp rxPkOk:vector(packetBytes) ETV
attr interpolationmode none
attr source rxPkOk
attr title "packets received OK, vector(packetBytes)"
vector 461 scenario.client4.ppp[2].ppp passedUpPk:vector(packetBytes) ETV
attr interpolationmode none
attr source packetSentToUpper
attr title "packets passed to higher layer, vector(packetBytes)"
vector 462 scenario.client4.tcp.conn-47 rcvSeq:vector ETV
attr interpolationmode sample-hold
vector 463 scenario.client4.tcp.conn-47 rcvAck:vector ETV
attr interpolationmode sample-hold
vector 464 scenario.client4.tcp.conn-47 sndWnd:vector ETV
attr interpolationmode sample-hold
vector 465 scenario.client4.tcp.conn-47 unacked:vector ETV
attr interpolationmode sample-hold
vector 466 scenario.client3.tcp.conn-48 rcvSeq:vector ETV
attr interpolationmode sample-hold
vector 467 scenario.client3.tcp.conn-48 rcvAck:vector ETV
attr interpolationmode sample-hold
vector 468 scenario.client3.tcp.conn-48 sndWnd:vector ETV
attr interpolationmode sample-hold
vector 469 scenario.client3.tcp.conn-48 unacked:vector ETV
attr interpolationmode sample-hold
vector 470 scenario.client2.tcp.conn-49 rcvSeq:vector ETV
attr interpolationmode sample-hold
vector 471 scenario.client2.tcp.conn-49 rcvAck:vector ETV
attr interpolationmode sample-hold
vector 472 scenario.client2.tcp.conn-49 unacked:vector ETV
attr interpolationmode sample-hold
vector 473 scenario.client2.tcp.conn-49 cwnd:vector ETV
attr interpolationmode sample-hold
vector 474 scenario.client2.tcp.conn-49 ssthresh:vector ETV
attr interpolationmode sample-hold
vector 475 scenario.client2.tcp.conn-49 dupAcks:vector ETV
attr interpolationmode sample-hold
vector 476 scenario.client2.tcp.conn-50 rcvSeq:vector ETV
attr interpolationmode sample-hold
vector 477 scenario.client2.tcp.conn-50 rcvAck:vector ETV
attr interpolationmode sample-hold
vector 478 scenario.client2.tcp.conn-50 unacked:vector ETV
attr interpolationmode sample-hold
vector 479 scenario.client2.tcp.conn-50 cwnd:vector ETV
attr interpolationmode sample-hold
vector 480 scenario.client2.tcp.conn-50 ssthresh:vector ETV
attr interpolationmode sample-hold
vector 481 scenario.client2.tcp.conn-50 dupAcks:vector ETV
attr interpolationmode sample-hold
vector 482 scenario.client4.tcp.conn-47 rtt:vector ETV
attr interpolationmode sample-hold
vector 483 scenario.client4.tcp.conn-47 srtt:vector ETV
attr interpolationmode sample-hold
vector 484 scenario.client4.tcp.conn-47 rttvar:vector ETV
attr interpolationmode sample-hold
vector 485 scenario.client4.tcp.conn-47 rto:vector ETV
attr interpolationmode sample-hold
vector 486 scenario.client4.tcp.conn-47 cwnd:vector ETV
attr interpolationmode sample-hold
vector 487 scenario.client4.tcp.conn-47 ssthresh:vector ETV
attr interpolationmode sample-hold
vector 488 scenario.client4.tcp.conn-47 dupAcks:vector ETV
attr interpolationmode sample-hold
vector 489 scenario.client3.tcp.conn-48 rtt:vector ETV
attr interpolationmode sample-hold
vector 490 scenario.client3.tcp.conn-48 srtt:vector ETV
attr interpolationmode sample-hold
vector 491 scenario.client3.tcp.conn-48 rttvar:vector ETV
attr interpolationmode sample-hold
vector 492 scenario.client3.tcp.conn-48 rto:vector ETV
attr interpolationmode sample-hold
vector 493 scenario.client3.tcp.conn-48 cwnd:vector ETV
attr interpolationmode sample-hold
vector 494 scenario.client3.tcp.conn-48 ssthresh:vector ETV
attr interpolationmode sample-hold
vector 495 scenario.client3.tcp.conn-48 dupAcks:vector ETV
attr interpolationmode sample-hold
vector 496 scenario.client4.tcp.conn-51 tcpRcvQueueBytes:vector ETV
attr interpolationmode sample-hold
vector 497 scenario.client4.tcp.conn-51 rcvAdv:vector ETV
attr interpolationmode sample-hold
vector 498 scenario.client4.tcp.conn-51 rcvWnd:vector ETV
attr interpolationmode sample-hold
vector 499 scenario.client4.tcp.conn-51 sndAck:vector ETV
attr interpolationmode sample-hold
vector 500 scenario.client4.ppp[3].ppp rcvdPkFromHl:vector(packetBytes) ETV
attr interpolationmode none
attr source packetReceivedFromUpper
attr title "packets received from higher layer, vector(packetBytes)"
vector 501 scenario.client4.ppp[3].ppp.queue packetPushed:vector(packetBytes) ETV
attr interpolationmode none
attr title "packet pushed, vector(packetBytes)"
vector 502 scenario.client4.ppp[3].ppp.queue queueLength:vector ETV
attr interpolationmode sample-hold
attr source "count(packetPushed) - count(packetPopped) - count(packetRemoved) - count(packetDropped)"
attr title "queue length, vector"
vector 503 scenario.client4.ppp[3].ppp.queue packetPopped:vector(packetBytes) ETV
attr interpolationmode none
attr title "packet popped, vector(packetBytes)"
vector 504 scenario.client4.ppp[3].ppp.queue queueingTime:vector ETV
attr interpolationmode none
attr source queueingTime(packetPopped)
attr title "queueing times, vector"
attr unit s
vector 505 scenario.client4.ppp[3].ppp txPk:vector(packetBytes) ETV
attr interpolationmode none
attr source packetSentToLower
attr title "packets transmitted, vector(packetBytes)"
vector 506 scenario.client3.ppp[3].ppp rxPkOk:vector(packetBytes) ETV
attr interpolationmode none
attr source rxPkOk
attr title "packets received OK, vector(packetBytes)"
vector 507 scenario.client3.ppp[3].ppp passedUpPk:vector(packetBytes) ETV
attr interpolationmode none
attr source packetSentToUpper
attr title "packets passed to higher layer, vector(packetBytes)"
vector 508 scenario.client3.tcp.conn-52 rcvAdv:vector ETV
attr interpolationmode sample-hold
vector 509 scenario.client3.tcp.conn-52 sndWnd:vector ETV
attr interpolationmode sample-hold
vector 510 scenario.client3.tcp.conn-52 tcpRcvQueueBytes:vector ETV
attr interpolationmode sample-hold
vector 511 scenario.client3.tcp.conn-52 rcvWnd:vector ETV
attr interpolationmode sample-hold
vector 512 scenario.client3.tcp.conn-52 sndAck:vector ETV
attr interpolationmode sample-hold
vector 513 scenario.client3.ppp[3].ppp rcvdPkFromHl:vector(packetBytes) ETV
attr interpolationmode none
attr source packetReceivedFromUpper
attr title "packets received from higher layer, vector(packetBytes)"
vector 514 scenario.client3.ppp[3].ppp.queue packetPushed:vector(packetBytes) ETV
attr interpolationmode none
attr title "packet pushed, vector(packetBytes)"
vector 515 scenario.client3.ppp[3].ppp.queue queueLength:vector ETV
attr interpolationmode sample-hold
attr source "count(packetPushed) - count(packetPopped) - count(packetRemoved) - count(packetDropped)"
attr title "queue length, vector"
vector 516 scenario.client3.ppp[3].ppp.queue packetPopped:vector(packetBytes) ETV
attr interpolationmode none
attr title "packet popped, vector(packetBytes)"
vector 517 scenario.client3.ppp[3].ppp.queue queueingTime:vector ETV
attr interpolationmode none
attr source queueingTime(packetPopped)
attr title "queueing times, vector"
attr unit s
vector 518 scenario.client3.ppp[3].ppp txPk:vector(packetBytes) ETV
attr interpolationmode none
attr source packetSentToLower
attr title "packets transmitted, vector(packetBytes)"
vector 519 scenario.client4.ppp[3].ppp rxPkOk:vector(packetBytes) ETV
attr interpolationmode none
attr source rxPkOk
attr title "packets received OK, vector(packetBytes)"
vector 520 scenario.client4.ppp[3].ppp passedUpPk:vector(packetBytes) ETV
attr interpolationmode none
attr source packetSentToUpper
attr title "packets passed to higher layer, vector(packetBytes)"
vector 521 scenario.client4.tcp.conn-51 rcvSeq:vector ETV
attr interpolationmode sample-hold
vector 522 scenario.client4.tcp.conn-51 rcvAck:vector ETV
attr interpolationmode sample-hold
vector 523 scenario.client4.tcp.conn-51 sndWnd:vector ETV
attr interpolationmode sample-hold
vector 524 scenario.client4.tcp.conn-51 unacked:vector ETV
attr interpolationmode sample-hold
vector 525 scenario.client3.tcp.conn-52 rcvSeq:vector ETV
attr interpolationmode sample-hold
vector 526 scenario.client3.tcp.conn-52 rcvAck:vector ETV
attr interpolationmode sample-hold
vector 527 scenario.client3.tcp.conn-52 unacked:vector ETV
attr interpolationmode sample-hold
vector 528 scenario.client3.tcp.conn-52 cwnd:vector ETV
attr interpolationmode sample-hold
vector 529 scenario.client3.tcp.conn-52 ssthresh:vector ETV
attr interpolationmode sample-hold
vector 530 scenario.client3.tcp.conn-52 dupAcks:vector ETV
attr interpolationmode sample-hold
vector 531 scenario.client4.tcp.conn-51 rtt:vector ETV
attr interpolationmode sample-hold
vector 532 scenario.client4.tcp.conn-51 srtt:vector ETV
attr interpolationmode sample-hold
vector 533 scenario.client4.tcp.conn-51 rttvar:vector ETV
attr interpolationmode sample-hold
vector 534 scenario.client4.tcp.conn-51 rto:vector ETV
attr interpolationmode sample-hold
vector 535 scenario.client4.tcp.conn-51 cwnd:vector ETV
attr interpolationmode sample-hold
vector 536 scenario.client4.tcp.conn-51 ssthresh:vector ETV
attr interpolationmode sample-hold
vector 537 scenario.client4.tcp.conn-51 dupAcks:vector ETV
attr interpolationmode sample-hold
vector 538 scenario.client3.tcp.conn-53 tcpRcvQueueBytes:vector ETV
attr interpolationmode sample-hold
vector 539 scenario.client3.tcp.conn-53 rcvAdv:vector ETV
attr interpolationmode sample-hold
vector 540 scenario.client3.tcp.conn-53 rcvWnd:vector ETV
attr interpolationmode sample-hold
vector 541 scenario.client3.tcp.conn-53 sndAck:vector ETV
attr interpolationmode sample-hold
vector 542 scenario.client4.tcp.conn-54 rcvAdv:vector ETV
attr interpolationmode sample-hold
vector 543 scenario.client4.tcp.conn-54 sndWnd:vector ETV
attr interpolationmode sample-hold
vector 544 scenario.client4.tcp.conn-54 tcpRcvQueueBytes:vector ETV
attr interpolationmode sample-hold
vector 545 scenario.client4.tcp.conn-54 rcvWnd:vector ETV
attr interpolationmode sample-hold
vector 546 scenario.client4.tcp.conn-54 sndAck:vector ETV
attr interpolationmode sample-hold
vector 547 scenario.client3.tcp.conn-53 rcvSeq:vector ETV
attr interpolationmode sample-hold
vector 548 scenario.client3.tcp.conn-53 rcvAck:vector ETV
attr interpolationmode sample-hold
vector 549 scenario.client3.tcp.conn-53 sndWnd:vector ETV
attr interpolationmode sample-hold
vector 550 scenario.client3.tcp.conn-53 unacked:vector ETV
attr interpolationmode sample-hold
vector 551 scenario.client4.tcp.conn-54 rcvSeq:vector ETV
attr interpolationmode sample-hold
vector 552 scenario.client4.tcp.conn-54 rcvAck:vector ETV
attr interpolationmode sample-hold
vector 553 scenario.client4.tcp.conn-54 unacked:vector ETV
attr interpolationmode sample-hold
vector 554 scenario.client4.tcp.conn-54 cwnd:vector ETV
attr interpolationmode sample-hold
vector 555 scenario.client4.tcp.conn-54 ssthresh:vector ETV
attr interpolationmode sample-hold
vector 556 scenario.client4.tcp.conn-54 dupAcks:vector ETV
attr interpolationmode sample-hold
vector 557 scenario.client3.tcp.conn-53 rtt:vector ETV
attr interpolationmode sample-hold
vector 558 scenario.client3.tcp.conn-53 srtt:vector ETV
attr interpolationmode sample-hold
vector 559 scenario.client3.tcp.conn-53 rttvar:vector ETV
attr interpolationmode sample-hold
vector 560 scenario.client3.tcp.conn-53 rto:vector ETV
attr interpolationmode sample-hold
vector 561 scenario.client3.tcp.conn-53 cwnd:vector ETV
attr interpolationmode sample-hold
vector 562 scenario.client3.tcp.conn-53 ssthresh:vector ETV
attr interpolationmode sample-hold
vector 563 scenario.client3.tcp.conn-53 dupAcks:vector ETV
attr interpolationmode sample-hold
vector 564 scenario.client2.tcp.conn-55 tcpRcvQueueBytes:vector ETV
attr interpolationmode sample-hold
vector 565 scenario.client2.tcp.conn-55 rcvAdv:vector ETV
attr interpolationmode sample-hold
vector 566 scenario.client2.tcp.conn-55 rcvWnd:vector ETV
attr interpolationmode sample-hold
vector 567 scenario.client2.tcp.conn-55 sndAck:vector ETV
attr interpolationmode sample-hold
vector 568 scenario.client4.tcp.conn-56 rcvAdv:vector ETV
attr interpolationmode sample-hold
vector 569 scenario.client4.tcp.conn-56 sndWnd:vector ETV
attr interpolationmode sample-hold
vector 570 scenario.client4.tcp.conn-56 tcpRcvQueueBytes:vector ETV
attr interpolationmode sample-hold
vector 571 scenario.client4.tcp.conn-56 rcvWnd:vector ETV
attr interpolationmode sample-hold
vector 572 scenario.client4.tcp.conn-56 sndAck:vector ETV
attr interpolationmode sample-hold
vector 573 scenario.client2.tcp.conn-55 rcvSeq:vector ETV
attr interpolationmode sample-hold
vector 574 scenario.client2.tcp.conn-55 rcvAck:vector ETV
attr interpolationmode sample-hold
vector 575 scenario.client2.tcp.conn-55 sndWnd:vector ETV
attr interpolationmode sample-hold
vector 576 scenario.client2.tcp.conn-55 unacked:vector ETV
attr interpolationmode sample-hold
vector 577 scenario.client4.tcp.conn-56 rcvSeq:vector ETV
attr interpolationmode sample-hold
vector 578 scenario.client4.tcp.conn-56 rcvAck:vector ETV
attr interpolationmode sample-hold
vector 579 scenario.client4.tcp.conn-56 unacked:vector ETV
attr interpolationmode sample-hold
vector 580 scenario.client4.tcp.conn-56 cwnd:vector ETV
attr interpolationmode sample-hold
vector 581 scenario.client4.tcp.conn-56 ssthresh:vector ETV
attr interpolationmode sample-hold
vector 582 scenario.client4.tcp.conn-56 dupAcks:vector ETV
attr interpolationmode sample-hold
vector 583 scenario.client2.tcp.conn-55 rtt:vector ETV
attr interpolationmode sample-hold
vector 584 scenario.client2.tcp.conn-55 srtt:vector ETV
attr interpolationmode sample-hold
vector 585 scenario.client2.tcp.conn-55 rttvar:vector ETV
attr interpolationmode sample-hold
vector 586 scenario.client2.tcp.conn-55 rto:vector ETV
attr interpolationmode sample-hold
vector 587 scenario.client2.tcp.conn-55 cwnd:vector ETV
attr interpolationmode sample-hold
vector 588 scenario.client2.tcp.conn-55 ssthresh:vector ETV
attr interpolationmode sample-hold
vector 589 scenario.client2.tcp.conn-55 dupAcks:vector ETV
attr interpolationmode sample-hold
vector 590 scenario.client2.tcp.conn-57 tcpRcvQueueBytes:vector ETV
attr interpolationmode sample-hold
vector 591 scenario.client2.tcp.conn-57 rcvAdv:vector ETV
attr interpolationmode sample-hold
vector 592 scenario.client2.tcp.conn-57 rcvWnd:vector ETV
attr interpolationmode sample-hold
vector 593 scenario.client2.tcp.conn-57 sndAck:vector ETV
attr interpolationmode sample-hold
vector 594 scenario.client0.tcp.conn-58 rcvAdv:vector ETV
attr interpolationmode sample-hold
vector 595 scenario.client0.tcp.conn-58 sndWnd:vector ETV
attr interpolationmode sample-hold
vector 596 scenario.client0.tcp.conn-58 tcpRcvQueueBytes:vector ETV
attr interpolationmode sample-hold
vector 597 scenario.client0.tcp.conn-58 rcvWnd:vector ETV
attr interpolationmode sample-hold
vector 598 scenario.client0.tcp.conn-58 sndAck:vector ETV
attr interpolationmode sample-hold
vector 599 scenario.client2.tcp.conn-57 rcvSeq:vector ETV
attr interpolationmode sample-hold
vector 600 scenario.client2.tcp.conn-57 rcvAck:vector ETV
attr interpolationmode sample-hold
vector 601 scenario.client2.tcp.conn-57 sndWnd:vector ETV
attr interpolationmode sample-hold
vector 602 scenario.client2.tcp.conn-57 unacked:vector ETV
attr interpolationmode sample-hold
vector 603 scenario.client0.tcp.conn-58 rcvSeq:vector ETV
attr interpolationmode sample-hold
vector 604 scenario.client0.tcp.conn-58 rcvAck:vector ETV
attr interpolationmode sample-hold
vector 605 scenario.client0.tcp.conn-58 unacked:vector ETV
attr interpolationmode sample-hold
vector 606 scenario.client0.tcp.conn-58 cwnd:vector ETV
attr interpolationmode sample-hold
vector 607 scenario.client0.tcp.conn-58 ssthresh:vector ETV
attr interpolationmode sample-hold
vector 608 scenario.client0.tcp.conn-58 dupAcks:vector ETV
attr interpolationmode sample-hold
vector 609 scenario.client2.tcp.conn-57 rtt:vector ETV
attr interpolationmode sample-hold
vector 610 scenario.client2.tcp.conn-57 srtt:vector ETV
attr interpolationmode sample-hold
vector 611 scenario.client2.tcp.conn-57 rttvar:vector ETV
attr interpolationmode sample-hold
vector 612 scenario.client2.tcp.conn-57 rto:vector ETV
attr interpolationmode sample-hold
vector 613 scenario.client2.tcp.conn-57 cwnd:vector ETV
attr interpolationmode sample-hold
vector 614 scenario.client2.tcp.conn-57 ssthresh:vector ETV
attr interpolationmode sample-hold
vector 615 scenario.client2.tcp.conn-57 dupAcks:vector ETV
attr interpolationmode sample-hold
vector 616 scenario.client0.tcp.conn-59 tcpRcvQueueBytes:vector ETV
attr interpolationmode sample-hold
vector 617 scenario.client0.tcp.conn-59 rcvAdv:vector ETV
attr interpolationmode sample-hold
vector 618 scenario.client0.tcp.conn-59 rcvWnd:vector ETV
attr interpolationmode sample-hold
vector 619 scenario.client0.tcp.conn-59 sndAck:vector ETV
attr interpolationmode sample-hold
vector 620 scenario.client0.ppp[3].ppp rcvdPkFromHl:vector(packetBytes) ETV
attr interpolationmode none
attr source packetReceivedFromUpper
attr title "packets received from higher layer, vector(packetBytes)"
vector 621 scenario.client0.ppp[3].ppp.queue packetPushed:vector(packetBytes) ETV
attr interpolationmode none
attr title "packet pushed, vector(packetBytes)"
vector 622 scenario.client0.ppp[3].ppp.queue queueLength:vector ETV
attr interpolationmode sample-hold
attr source "count(packetPushed) - count(packetPopped) - count(packetRemoved) - count(packetDropped)"
attr title "queue length, vector"
vector 623 scenario.client0.ppp[3].ppp.queue packetPopped:vector(packetBytes) ETV
attr interpolationmode none
attr title "packet popped, vector(packetBytes)"
vector 624 scenario.client0.ppp[3].ppp.queue queueingTime:vector ETV
attr interpolationmode none
attr source queueingTime(packetPopped)
attr title "queueing times, vector"
attr unit s
vector 625 scenario.client0.ppp[3].ppp txPk:vector(packetBytes) ETV
attr interpolationmode none
attr source packetSentToLower
attr title "packets transmitted, vector(packetBytes)"
vector 626 scenario.client4.ppp[0].ppp rxPkOk:vector(packetBytes) ETV
attr interpolationmode none
attr source rxPkOk
attr title "packets received OK, vector(packetBytes)"
vector 627 scenario.client4.ppp[0].ppp passedUpPk:vector(packetBytes) ETV
attr interpolationmode none
attr source packetSentToUpper
attr title "packets passed to higher layer, vector(packetBytes)"
vector 628 scenario.client4.tcp.conn-60 rcvAdv:vector ETV
attr interpolationmode sample-hold
vector 629 scenario.client4.tcp.conn-60 sndWnd:vector ETV
attr interpolationmode sample-hold
vector 630 scenario.client4.tcp.conn-60 tcpRcvQueueBytes:vector ETV
attr interpolationmode sample-hold
vector 631 scenario.client4.tcp.conn-60 rcvWnd:vector ETV
attr interpolationmode sample-hold
vector 632 scenario.client4.tcp.conn-60 sndAck:vector ETV
attr interpolationmode sample-hold
vector 633 scenario.client4.ppp[0].ppp rcvdPkFromHl:vector(packetBytes) ETV
attr interpolationmode none
attr source packetReceivedFromUpper
attr title "packets received from higher layer, vector(packetBytes)"
vector 634 scenario.client4.ppp[0].ppp.queue packetPushed:vector(packetBytes) ETV
attr interpolationmode none
attr title "packet pushed, vector(packetBytes)"
vector 635 scenario.client4.ppp[0].ppp.queue queueLength:vector ETV
attr interpolationmode sample-hold
attr source "count(packetPushed) - count(packetPopped) - count(packetRemoved) - count(packetDropped)"
attr title "queue length, vector"
vector 636 scenario.client4.ppp[0].ppp.queue packetPopped:vector(packetBytes) ETV
attr interpolationmode none
attr title "packet popped, vector(packetBytes)"
vector 637 scenario.client4.ppp[0].ppp.queue queueingTime:vector ETV
attr interpolationmode none
attr source queueingTime(packetPopped)
attr title "queueing times, vector"
attr unit s
vector 638 scenario.client4.ppp[0].ppp txPk:vector(packetBytes) ETV
attr interpolationmode none
attr source packetSentToLower
attr title "packets transmitted, vector(packetBytes)"
vector 639 scenario.client0.ppp[3].ppp rxPkOk:vector(packetBytes) ETV
attr interpolationmode none
attr source rxPkOk
attr title "packets received OK, vector(packetBytes)"
vector 640 scenario.client0.ppp[3].ppp passedUpPk:vector(packetBytes) ETV
attr interpolationmode none
attr source packetSentToUpper
attr title "packets passed to higher layer, vector(packetBytes)"
vector 641 scenario.client0.tcp.conn-59 rcvSeq:vector ETV
attr interpolationmode sample-hold
vector 642 scenario.client0.tcp.conn-59 rcvAck:vector ETV
attr interpolationmode sample-hold
vector 643 scenario.client0.tcp.conn-59 sndWnd:vector ETV
attr interpolationmode sample-hold
vector 644 scenario.client0.tcp.conn-59 unacked:vector ETV
attr interpolationmode sample-hold
vector 645 scenario.client4.tcp.conn-60 rcvSeq:vector ETV
attr interpolationmode sample-hold
vector 646 scenario.client4.tcp.conn-60 rcvAck:vector ETV
attr interpolationmode sample-hold
vector 647 scenario.client4.tcp.conn-60 unacked:vector ETV
attr interpolationmode sample-hold
vector 648 scenario.client4.tcp.conn-60 cwnd:vector ETV
attr interpolationmode sample-hold
vector 649 scenario.client4.tcp.conn-60 ssthresh:vector ETV
attr interpolationmode sample-hold
vector 650 scenario.client4.tcp.conn-60 dupAcks:vector ETV
attr interpolationmode sample-hold
vector 651 scenario.client0.tcp.conn-59 rtt:vector ETV
attr interpolationmode sample-hold
vector 652 scenario.client0.tcp.conn-59 srtt:vector ETV
attr interpolationmode sample-hold
vector 653 scenario.client0.tcp.conn-59 rttvar:vector ETV
attr interpolationmode sample-hold
vector 654 scenario.client0.tcp.conn-59 rto:vector ETV
attr interpolationmode sample-hold
vector 655 scenario.client0.tcp.conn-59 cwnd:vector ETV
attr interpolationmode sample-hold
vector 656 scenario.client0.tcp.conn-59 ssthresh:vector ETV
attr interpolationmode sample-hold
vector 657 scenario.client0.tcp.conn-59 dupAcks:vector ETV
attr interpolationmode sample-hold
vector 658 scenario.client4.tcp.conn-61 tcpRcvQueueBytes:vector ETV
attr interpolationmode sample-hold
vector 659 scenario.client4.tcp.conn-61 rcvAdv:vector ETV
[...]
479	271746 29 459 459 3.221487194433 3.221487194433 1 1072 1072 1072 1149184
480	271775 35 459 459 3.221487194433 3.221487194433 1 4294967295 4294967295 4294967295 1.844674406512e+019
481	271810 384 459 3079 3.221487194433 15.129333296061 14 0 0 0 0
482	272194 368 468 2857 3.221600231697 14.395298995819 11 0.00176 0.002136 0.019752 3.5594944e-005
483	272562 428 468 2857 3.221600231697 14.395298995819 11 0.00022 0.001397289271 0.009970975111 1.0522569403807e-005
484	272990 428 468 2857 3.221600231697 14.395298995819 11 0.17331615385 0.65647 4.04796523722 1.7444325686586
485	273418 387 468 2857 3.221600231697 14.395298995819 11 1 2.6261 16.807839346359 29.002621612305
486	273805 332 468 2857 3.221600231697 14.395298995819 11 1072 3752 25192 65790784
487	274137 398 468 2857 3.221600231697 14.395298995819 11 4294967295 4294967295 47244640245 2.0291418471632e+020
488	274535 299 468 2857 3.221600231697 14.395298995819 11 0 0 0 0
489	274834 470 472 3086 3.222363194433 15.130209296061 14 0.00176 0.001768 0.024656 4.3422848e-005
490	275304 551 472 3086 3.222363194433 15.130209296061 14 0.00022 0.001489490386 0.014229567317 1.6587956770081e-005
491	275855 551 472 3086 3.222363194433 15.130209296061 14 0.116200625363 0.65647 4.448511545524 1.7985324710627
492	276406 473 472 3086 3.222363194433 15.130209296061 14 1 2.6261 19.8078386411 32.002612344479
493	276879 426 472 3086 3.222363194433 15.130209296061 14 1072 5360 39664 136178304
494	277305 510 472 3086 3.222363194433 15.130209296061 14 4294967295 4294967295 60129542130 2.5825441691167e+020
495	277815 384 472 3086 3.222363194433 15.130209296061 14 0 0 0 0
496	278199 298 489 3058 3.367595446638 15.112640708151 11 0 0 0 0
497	278497 382 489 3058 3.367595446638 15.112640708151 12 7504 849630 9353434 7940638815916
498	278879 331 489 3058 3.367595446638 15.112640708151 11 7504 7504 82544 619410176
499	279210 348 489 3058 3.367595446638 15.112640708151 11 0 842126 8421260 7091761998760
500	279558 676 492 3060 3.367595446638 15.112640708151 24 40 44 980 40048
501	280234 676 492 3060 3.367595446638 15.112640708151 24 40 44 980 40048
502	280910 1304 492 3060 3.367595446638 15.112640708151 48 0 1 24 24
503	282214 676 492 3060 3.367595446638 15.112640708151 24 40 44 980 40048
504	282890 652 492 3060 3.367595446638 15.112640708151 24 0 0 0 0
505	283542 676 492 3060 3.367595446638 15.112640708151 24 47 51 1148 54944
506	284218 676 494 3062 3.368503446638 15.113524708151 24 47 51 1148 54944
507	284894 676 494 3062 3.368503446638 15.113524708151 24 40 44 980 40048
508	285570 385 496 3064 3.368503446638 15.113524708151 12 849403 849415 10192902 8657937598668
509	285955 58 496 509 3.368503446638 3.370295446638 2 7504 7504 15008 112620032
510	286013 572 496 3064 3.368503446638 15.113524708151 21 0 1 1 1
511	286585 332 496 3064 3.368503446638 15.113524708151 11 7503 7504 82543 619395169
512	286917 354 496 3064 3.368503446638 15.113524708151 11 841899 841911 9260956 7796846003242
513	287271 677 498 3067 3.368503446638 15.113524708151 24 40 44 982 40210
514	287948 677 498 3067 3.368503446638 15.113524708151 24 40 44 982 40210
515	288625 1306 498 3067 3.368503446638 15.113524708151 48 0 1 24 24
516	289931 677 498 3067 3.368503446638 15.113524708151 24 40 44 982 40210
517	290608 666 498 3067 3.368503446638 15.113524708151 24 0 0.000292444472 0.000292444472 8.5523769203359e-008
518	291274 677 498 3067 3.368503446638 15.113524708151 24 47 51 1150 55134
519	291951 677 500 3069 3.369411446638 15.114400708151 24 47 51 1150 55134
520	292628 677 500 3069 3.369411446638 15.114400708151 24 40 44 982 40210
521	293305 354 502 3071 3.369411446638 15.114400708151 11 842125 842126 9263385 7800936514385
522	293659 354 502 3071 3.369411446638 15.114400708151 11 841899 841911 9260956 7796846003242
523	294013 332 502 3071 3.369411446638 15.114400708151 11 7503 7504 82543 619395169
524	294345 545 502 3071 3.369411446638 15.114400708151 20 0 2 12 16
525	294890 323 509 3064 3.370295446638 15.113524708151 10 841899 841910 8419045 7088031871321
526	295213 323 509 3064 3.370295446638 15.113524708151 10 842126 842126 8421260 7091761998760
527	295536 26 509 509 3.370295446638 3.370295446638 1 0 0 0 0
528	295562 29 509 509 3.370295446638 3.370295446638 1 1072 1072 1072 1149184
529	295591 35 509 509 3.370295446638 3.370295446638 1 4294967295 4294967295 4294967295 1.844674406512e+019
530	295626 273 509 3064 3.370295446638 15.113524708151 10 0 0 0 0
531	295899 335 519 3071 3.371171446638 15.114400708151 10 0.00176 0.001768 0.017616 3.1032448e-005
532	296234 388 519 3071 3.371171446638 15.114400708151 10 0.00022 0.00129809622 0.008529326465 8.4524489657045e-006
533	296622 390 519 3071 3.371171446638 15.114400708151 10 0.197968627074 0.65647 3.874604380245 1.7143765408505
534	297012 361 519 3071 3.371171446638 15.114400708151 10 1 2.6261 15.807844346359 28.002631959803
535	297373 303 519 3071 3.371171446638 15.114400708151 10 1072 3216 21440 51713280
536	297676 363 519 3071 3.371171446638 15.114400708151 10 4294967295 4294967295 42949672950 1.844674406512e+020
537	298039 273 519 3071 3.371171446638 15.114400708151 10 0 0 0 0
538	298312 354 521 3043 3.401318399609 15.032712731835 13 0 0 0 0
539	298666 448 521 3043 3.401318399609 15.032712731835 14 7504 858061 11162297 9571549146389
540	299114 393 521 3043 3.401318399609 15.032712731835 13 7504 7504 97552 732030208
541	299507 414 521 3043 3.401318399609 15.032712731835 13 0 850557 10206684 8681366522988
542	299921 450 528 3049 3.402226399609 15.033596731835 14 857834 857848 12009766 10302462812788
543	300371 58 528 541 3.402226399609 3.404018399609 2 7504 7504 15008 112620032
544	300429 682 528 3049 3.402226399609 15.033596731835 25 0 1 1 1
545	301111 393 528 3049 3.402226399609 15.033596731835 13 7503 7504 97551 732015201
546	301504 419 528 3049 3.402226399609 15.033596731835 13 850330 850344 11054381 9399949176645
547	301923 419 534 3056 3.403134399609 15.034472731835 13 850556 850557 11057240 9404812032124
548	302342 419 534 3056 3.403134399609 15.034472731835 13 850330 850344 11054381 9399949176645
549	302761 393 534 3056 3.403134399609 15.034472731835 13 7503 7504 97551 732015201
550	303154 656 534 3056 3.403134399609 15.034472731835 24 0 2 16 22
551	303810 388 541 3049 3.404018399609 15.033596731835 12 850330 850343 10204037 8676864258309
552	304198 388 541 3049 3.404018399609 15.033596731835 12 850557 850557 10206684 8681366522988
553	304586 26 541 541 3.404018399609 3.404018399609 1 0 0 0 0
554	304612 29 541 541 3.404018399609 3.404018399609 1 1072 1072 1072 1149184
555	304641 35 541 541 3.404018399609 3.404018399609 1 4294967295 4294967295 4294967295 1.844674406512e+019
556	304676 328 541 3049 3.404018399609 15.033596731835 12 0 0 0 0
557	305004 368 551 3056 3.404894399609 15.034472731835 11 0.00176 0.001768 0.019376 3.4130048e-005
558	305372 429 551 3056 3.404894399609 15.034472731835 11 0.00022 0.001355972848 0.009884190081 1.0289767353578e-005
559	305801 428 551 3056 3.404894399609 15.034472731835 11 0.173280487539 0.65647 4.047884369992 1.7444019940736
560	306229 389 551 3056 3.404894399609 15.034472731835 11 1 2.6261 16.8078386411 29.002612344479
561	306618 364 551 3056 3.404894399609 15.034472731835 12 1072 4288 29480 84177728
562	306982 436 551 3056 3.404894399609 15.034472731835 12 4294967295 4294967295 51539607540 2.2136092878144e+020
563	307418 328 551 3056 3.404894399609 15.034472731835 12 0 0 0 0
564	307746 298 553 3103 3.510009183019 15.208895050264 11 0 0 0 0
565	308044 382 553 3103 3.510009183019 15.208895050264 12 7504 885234 9745078 8620087892332
566	308426 331 553 3103 3.510009183019 15.208895050264 11 7504 7504 82544 619410176
567	308757 348 553 3103 3.510009183019 15.208895050264 11 0 877730 8777300 7704099529000
568	309105 384 560 3109 3.510917183019 15.209779050264 12 885007 885019 10620149 9398963732057
569	309489 58 560 573 3.510917183019 3.512709183019 2 7504 7504 15008 112620032
570	309547 570 560 3109 3.510917183019 15.209779050264 21 0 1 1 1
571	310117 331 560 3109 3.510917183019 15.209779050264 11 7503 7504 82543 619395169
572	310448 353 560 3109 3.510917183019 15.209779050264 11 877503 877515 9652599 8470242496055
573	310801 353 566 3116 3.511825183019 15.210655050264 11 877729 877730 9655029 8474507726441
574	311154 353 566 3116 3.511825183019 15.210655050264 11 877503 877515 9652599 8470242496055
575	311507 331 566 3116 3.511825183019 15.210655050264 11 7503 7504 82543 619395169
576	311838 544 566 3116 3.511825183019 15.210655050264 20 0 2 12 16
577	312382 322 573 3109 3.512709183019 15.209779050264 10 877503 877514 8775084 7700209920830
578	312704 322 573 3109 3.512709183019 15.209779050264 10 877730 877730 8777300 7704099529000
579	313026 26 573 573 3.512709183019 3.512709183019 1 0 0 0 0
580	313052 29 573 573 3.512709183019 3.512709183019 1 1072 1072 1072 1149184
581	313081 35 573 573 3.512709183019 3.512709183019 1 4294967295 4294967295 4294967295 1.844674406512e+019
582	313116 272 573 3109 3.512709183019 15.209779050264 10 0 0 0 0
583	313388 334 583 3116 3.513585183019 15.210655050264 10 0.00176 0.002144 0.018368 3.3974272e-005
584	313722 386 583 3116 3.513585183019 15.210655050264 10 0.00022 0.00135258639 0.00889989528 9.2273323086814e-006
585	314108 390 583 3116 3.513585183019 15.210655050264 10 0.197994379286 0.65647 3.874860036116 1.7145487630849
586	314498 361 583 3116 3.513585183019 15.210655050264 10 1 2.6261 15.808864455344 28.005687834303
587	314859 302 583 3116 3.513585183019 15.210655050264 10 1072 3216 19296 42519808
588	315161 362 583 3116 3.513585183019 15.210655050264 10 4294967295 4294967295 42949672950 1.844674406512e+020
589	315523 272 583 3116 3.513585183019 15.210655050264 10 0 0 0 0
590	315795 296 585 2933 3.518723105564 14.681809873104 11 0 0 0 0
591	316091 380 585 2933 3.518723105564 14.681809873104 12 7504 887412 9769036 8662556945200
592	316471 329 585 2933 3.518723105564 14.681809873104 11 7504 7504 82544 619410176
593	316800 346 585 2933 3.518723105564 14.681809873104 11 0 879908 8799080 7742380884640
594	317146 382 592 2939 3.519631105564 14.682693873104 12 887185 887197 10646284 9445280250920
595	317528 58 592 605 3.519631105564 3.521423105564 2 7504 7504 15008 112620032
596	317586 566 592 2939 3.519631105564 14.682693873104 21 0 1 1 1
597	318152 329 592 2939 3.519631105564 14.682693873104 11 7503 7504 82543 619395169
598	318481 351 592 2939 3.519631105564 14.682693873104 11 879681 879693 9676556 8512339638442
599	318832 351 598 2946 3.520539105564 14.683569873104 11 879907 879908 9678987 8516617213289
600	319183 351 598 2946 3.520539105564 14.683569873104 11 879681 879693 9676556 8512339638442
601	319534 329 598 2946 3.520539105564 14.683569873104 11 7503 7504 82543 619395169
602	319863 540 598 2946 3.520539105564 14.683569873104 20 0 2 12 16
603	320403 320 605 2939 3.521423105564 14.682693873104 10 879681 879692 8796863 7738479864193
604	320723 320 605 2939 3.521423105564 14.682693873104 10 879908 879908 8799080 7742380884640
605	321043 26 605 605 3.521423105564 3.521423105564 1 0 0 0 0
606	321069 29 605 605 3.521423105564 3.521423105564 1 1072 1072 1072 1149184
607	321098 35 605 605 3.521423105564 3.521423105564 1 4294967295 4294967295 4294967295 1.844674406512e+019
608	321133 270 605 2939 3.521423105564 14.682693873104 10 0 0 0 0
609	321403 332 615 2946 3.522299105564 14.683569873104 10 0.00176 0.001768 0.017616 3.1032448e-005
610	321735 386 615 2946 3.522299105564 14.683569873104 10 0.00022 0.001298254683 0.008528217233 8.4511049890647e-006
611	322121 385 615 2946 3.522299105564 14.683569873104 10 0.197968879285 0.65647 3.874603882453 1.7143758667119
612	322506 359 615 2946 3.522299105564 14.683569873104 10 1 2.6261 15.8078386411 28.002612344479
613	322865 300 615 2946 3.522299105564 14.683569873104 10 1072 3752 21976 55448128
614	323165 360 615 2946 3.522299105564 14.683569873104 10 4294967295 4294967295 42949672950 1.844674406512e+020
615	323525 270 615 2946 3.522299105564 14.683569873104 10 0 0 0 0
616	323795 297 632 2918 3.540330210273 14.628160406995 11 0 0 0 0
617	324092 381 632 2918 3.540330210273 14.628160406995 12 7504 892814 9828458 8768341534572
618	324473 330 632 2918 3.540330210273 14.628160406995 11 7504 7504 82544 619410176
619	324803 347 632 2918 3.540330210273 14.628160406995 11 0 885310 8853100 7837737961000
620	325150 617 635 3127 3.540330210273 15.215393419233 22 40 44 900 36848
621	325767 617 635 3127 3.540330210273 15.215393419233 22 40 44 900 36848
622	326384 1190 635 3127 3.540330210273 15.215393419233 44 0 1 22 22
623	327574 617 635 3127 3.540330210273 15.215393419233 22 40 44 900 36848
624	328191 595 635 3127 3.540330210273 15.215393419233 22 0 0 0 0
625	328786 617 635 3127 3.540330210273 15.215393419233 22 47 51 1054 50526
626	329403 617 642 3129 3.541238210273 15.216269419233 22 47 51 1054 50526
627	330020 617 642 3129 3.541238210273 15.216269419233 22 40 44 900 36848
628	330637 383 644 2924 3.541238210273 14.629044406995 12 892587 892599 10711109 9560654667697
629	331020 58 644 667 3.541238210273 3.543030210273 2 7504 7504 15008 112620032
630	331078 568 644 2924 3.541238210273 14.629044406995 21 0 1 1 1
631	331646 330 644 2924 3.541238210273 14.629044406995 11 7503 7504 82543 619395169
632	331976 352 644 2924 3.541238210273 14.629044406995 11 885083 885095 9735979 8617207917295
633	332328 616 646 3120 3.541238210273 15.214509419233 22 40 44 900 36848
634	332944 616 646 3120 3.541238210273 15.214509419233 22 40 44 900 36848
635	333560 1188 646 3120 3.541238210273 15.214509419233 44 0 1 22 22
636	334748 616 646 3120 3.541238210273 15.214509419233 22 40 44 900 36848
637	335364 601 646 3120 3.541238210273 15.214509419233 22 0 0.000376 0.000376 1.41376e-007
638	335965 616 646 3120 3.541238210273 15.214509419233 22 47 51 1054 50526
639	336581 616 655 3122 3.542146210273 15.215393419233 22 47 51 1054 50526
640	337197 616 655 3122 3.542146210273 15.215393419233 22 40 44 900 36848
641	337813 352 657 2931 3.542146210273 14.629920406995 11 885309 885310 9738409 8621509986481
642	338165 352 657 2931 3.542146210273 14.629920406995 11 885083 885095 9735979 8617207917295
643	338517 330 657 2931 3.542146210273 14.629920406995 11 7503 7504 82543 619395169
644	338847 542 657 2931 3.542146210273 14.629920406995 20 0 2 12 16
645	339389 321 667 2924 3.543030210273 14.629044406995 10 885083 885094 8850884 7833814758270
646	339710 321 667 2924 3.543030210273 14.629044406995 10 885310 885310 8853100 7837737961000
647	340031 26 667 667 3.543030210273 3.543030210273 1 0 0 0 0
648	340057 29 667 667 3.543030210273 3.543030210273 1 1072 1072 1072 1149184
649	340086 35 667 667 3.543030210273 3.543030210273 1 4294967295 4294967295 4294967295 1.844674406512e+019
650	340121 271 667 2924 3.543030210273 14.629044406995 10 0 0 0 0
651	340392 333 677 2931 3.543906210273 14.629920406995 10 0.00176 0.001768 0.017616 3.1032448e-005
652	340725 387 677 2931 3.543906210273 14.629920406995 10 0.00022 0.001298145308 0.008528982858 8.4528254731102e-006
653	341112 385 677 2931 3.543906210273 14.629920406995 10 0.19796867616 0.65647 3.874604429328 1.7143761899967
654	341497 360 677 2931 3.543906210273 14.629920406995 10 1 2.6261 15.8078436411 28.00262269198
655	341857 301 677 2931 3.543906210273 14.629920406995 10 1072 3216 21440 51713280
656	342158 361 677 2931 3.543906210273 14.629920406995 10 4294967295 4294967295 42949672950 1.844674406512e+020
657	342519 271 677 2931 3.543906210273 14.629920406995 10 0 0 0 0
658	342790 297 694 3118 3.597613452559 15.214509419233 11 0 0 0 0
659	343087 381 694 3118 3.597613452559 15.214509419233 12 7504 907135 9985989 9051889300491
660	343468 330 694 3118 3.597613452559 15.214509419233 11 7504 7504 82544 619410176
661	343798 347 694 3118 3.597613452559 15.214509419233 11 0 899631 8996310 8093359361610
662	344145 384 701 3124 3.598521452559 15.215393419233 12 906908 906920 10882961 9869903344167
663	344529 58 701 714 3.598521452559 3.600313452559 2 7504 7504 15008 112620032
664	344587 570 701 3124 3.598521452559 15.215393419233 21 0 1 1 1
665	345157 331 701 3124 3.598521452559 15.215393419233 11 7503 7504 82543 619395169
666	345488 353 701 3124 3.598521452559 15.215393419233 11 899404 899416 9893510 8898321829264
667	345841 353 707 3131 3.599429452559 15.216269419233 11 899630 899631 9895940 8902693498510
668	346194 353 707 3131 3.599429452559 15.216269419233 11 899404 899416 9893510 8898321829264
669	346547 331 707 3131 3.599429452559 15.216269419233 11 7503 7504 82543 619395169
670	346878 543 707 3131 3.599429452559 15.216269419233 20 0 2 12 16
671	347421 322 714 3124 3.600313452559 15.215393419233 10 899404 899415 8994094 8089372688208
672	347743 322 714 3124 3.600313452559 15.215393419233 10 899631 899631 8996310 8093359361610
673	348065 26 714 714 3.600313452559 3.600313452559 1 0 0 0 0
674	348091 29 714 714 3.600313452559 3.600313452559 1 1072 1072 1072 1149184
675	348120 35 714 714 3.600313452559 3.600313452559 1 4294967295 4294967295 4294967295 1.844674406512e+019
676	348155 272 714 3124 3.600313452559 15.215393419233 10 0 0 0 0
677	348427 334 724 3131 3.601189452559 15.216269419233 10 0.00176 0.002144 0.017992 3.250336e-005
678	348761 388 724 3131 3.601189452559 15.216269419233 10 0.00022 0.001334129683 0.008653092233 8.761527722535e-006
679	349149 387 724 3131 3.601189452559 15.216269419233 10 0.197994379285 0.65647 3.874712382453 1.7144266057431
680	349536 361 724 3131 3.601189452559 15.216269419233 10 1 2.6261 15.8080786411 28.003109080962
681	349897 302 724 3131 3.601189452559 15.216269419233 10 1072 3216 18224 37923072
682	350199 362 724 3131 3.601189452559 15.216269419233 10 4294967295 4294967295 42949672950 1.844674406512e+020
683	350561 272 724 3131 3.601189452559 15.216269419233 10 0 0 0 0
684	350833 298 842 2756 3.884133517137 14.332250865566 11 0 0 0 0
685	351131 382 842 2756 3.884133517137 14.332250865566 12 7504 978765 10773919 10537846487491
686	351513 331 842 2756 3.884133517137 14.332250865566 11 7504 7504 82544 619410176
687	351844 348 842 2756 3.884133517137 14.332250865566 11 0 971261 9712610 9433479301210
688	352192 384 876 2762 3.885041517137 14.333134865566 12 978538 978550 11742522 11490568576908
689	352576 58 876 907 3.885041517137 3.886841517137 2 7504 7504 15008 112620032
690	352634 570 876 2762 3.885041517137 14.333134865566 21 0 2 2 4
691	353204 331 876 2762 3.885041517137 14.333134865566 11 7502 7504 82542 619380164
692	353535 353 876 2762 3.885041517137 14.333134865566 11 971034 971046 10681442 10372109381908
693	353888 353 897 2769 3.885949517137 14.334010865566 11 971260 971261 10683870 10376825288810
694	354241 353 897 2769 3.885949517137 14.334010865566 11 971034 971046 10681442 10372109381908
695	354594 331 897 2769 3.885949517137 14.334010865566 11 7502 7504 82542 619380164
696	354925 544 897 2769 3.885949517137 14.334010865566 20 0 2 12 16
697	355469 322 907 2762 3.886841517137 14.333134865566 10 971034 971045 9710396 9429179047792
698	355791 322 907 2762 3.886841517137 14.333134865566 10 971261 971261 9712610 9433479301210
699	356113 26 907 907 3.886841517137 3.886841517137 1 0 0 0 0
700	356139 29 907 907 3.886841517137 3.886841517137 1 1072 1072 1072 1149184
701	356168 35 907 907 3.886841517137 3.886841517137 1 4294967295 4294967295 4294967295 1.844674406512e+019
702	356203 272 907 2762 3.886841517137 14.333134865566 10 0 0 0 0
703	356475 334 917 2769 3.887717517137 14.334010865566 10 0.00176 0.001768 0.017616 3.1032448e-005
704	356809 393 917 2769 3.887717517137 14.334010865566 10 0.000221 0.001298053269 0.008529627119 8.4517345061048e-006
705	357202 391 917 2769 3.887717517137 14.334010865566 10 0.197968590259 0.656471 3.87460429434 1.7143769271107
706	357593 366 917 2769 3.887717517137 14.334010865566 10 1 2.626105 15.807844739039 28.002641900792
707	357959 302 917 2769 3.887717517137 14.334010865566 10 1072 3216 21440 51713280
708	358261 362 917 2769 3.887717517137 14.334010865566 10 4294967295 4294967295 42949672950 1.844674406512e+020
709	358623 272 917 2769 3.887717517137 14.334010865566 10 0 0 0 0

