version 2
run L_1_2-0-20220111-19:18:27-14836
attr configname L_1_2
attr datetime 20220111-19:18:27
attr experiment L_1_2
attr inifile omnetpp.ini
attr iterationvars ""
attr iterationvarsf ""
attr measurement ""
attr network scenario
attr processid 14836
attr repetition 0
attr replication #0
attr resultdir results
attr runnumber 0
attr seedset 0
param **.client1.app[0].leave 0.0
param **.client2.app[0].leave 10.5
param **.ppp[*].ppp.queue.typename "\"DropTailQueue\""
param **.tcp.typename "\"Tcp\""
param **.tcp.nagleEnabled false
param **.cli*.app[*].nPar 5
param **.cli*.app[*].fPar 0
param **.numApps 1
param **.client0.app[*].typename "\"Node\""
param **.client0.app[0].localPort 1000
param **.client0.app[0].localPortL 1234
param **.client0.app[0].connectAddress "\"\""
param **.client0.app[0].connectPort 1234
param **.client1.app[*].typename "\"Node\""
param **.client1.app[0].localPort 1001
param **.client1.app[0].localPortL 1234
param **.client1.app[0].connectAddress "\"\""
param **.client1.app[0].connectPort 1234
param **.client2.app[*].typename "\"Node\""
param **.client2.app[0].localPort 1002
param **.client2.app[0].localPortL 1234
param **.client2.app[0].connectAddress "\"\""
param **.client2.app[0].connectPort 1234
param **.client3.app[*].typename "\"Node\""
param **.client3.app[0].localPort 1003
param **.client3.app[0].localPortL 1234
param **.client3.app[0].connectAddress "\"\""
param **.client3.app[0].connectPort 1234
param **.client4.app[*].typename "\"Node\""
param **.client4.app[0].localPort 1004
param **.client4.app[0].localPortL 1234
param **.client4.app[0].connectAddress "\"\""
param **.client4.app[0].connectPort 1234
param *.configurator.dumpAddresses true
param *.configurator.dumpTopology true
param *.configurator.dumpLinks true
param *.configurator.dumpRoutes true

vector 0 scenario.client0.ppp[0].ppp transmissionState:vector ETV
attr interpolationmode sample-hold
attr source transmissionStateChanged
attr title "tx state, vector"
vector 1 scenario.client0.ppp[1].ppp transmissionState:vector ETV
attr interpolationmode sample-hold
attr source transmissionStateChanged
attr title "tx state, vector"
vector 2 scenario.client0.ppp[2].ppp transmissionState:vector ETV
attr interpolationmode sample-hold
attr source transmissionStateChanged
attr title "tx state, vector"
vector 3 scenario.client0.ppp[3].ppp transmissionState:vector ETV
attr interpolationmode sample-hold
attr source transmissionStateChanged
attr title "tx state, vector"
vector 4 scenario.client1.ppp[0].ppp transmissionState:vector ETV
attr interpolationmode sample-hold
attr source transmissionStateChanged
attr title "tx state, vector"
vector 5 scenario.client1.ppp[1].ppp transmissionState:vector ETV
attr interpolationmode sample-hold
attr source transmissionStateChanged
attr title "tx state, vector"
vector 6 scenario.client1.ppp[2].ppp transmissionState:vector ETV
attr interpolationmode sample-hold
attr source transmissionStateChanged
attr title "tx state, vector"
vector 7 scenario.client1.ppp[3].ppp transmissionState:vector ETV
attr interpolationmode sample-hold
attr source transmissionStateChanged
attr title "tx state, vector"
vector 8 scenario.client2.ppp[0].ppp transmissionState:vector ETV
attr interpolationmode sample-hold
attr source transmissionStateChanged
attr title "tx state, vector"
vector 9 scenario.client2.ppp[1].ppp transmissionState:vector ETV
attr interpolationmode sample-hold
attr source transmissionStateChanged
attr title "tx state, vector"
vector 10 scenario.client2.ppp[2].ppp transmissionState:vector ETV
attr interpolationmode sample-hold
attr source transmissionStateChanged
attr title "tx state, vector"
vector 11 scenario.client2.ppp[3].ppp transmissionState:vector ETV
attr interpolationmode sample-hold
attr source transmissionStateChanged
attr title "tx state, vector"
vector 12 scenario.client3.ppp[0].ppp transmissionState:vector ETV
attr interpolationmode sample-hold
attr source transmissionStateChanged
attr title "tx state, vector"
vector 13 scenario.client3.ppp[1].ppp transmissionState:vector ETV
attr interpolationmode sample-hold
attr source transmissionStateChanged
attr title "tx state, vector"
vector 14 scenario.client3.ppp[2].ppp transmissionState:vector ETV
attr interpolationmode sample-hold
attr source transmissionStateChanged
attr title "tx state, vector"
vector 15 scenario.client3.ppp[3].ppp transmissionState:vector ETV
attr interpolationmode sample-hold
attr source transmissionStateChanged
attr title "tx state, vector"
vector 16 scenario.client4.ppp[0].ppp transmissionState:vector ETV
attr interpolationmode sample-hold
attr source transmissionStateChanged
attr title "tx state, vector"
vector 17 scenario.client4.ppp[1].ppp transmissionState:vector ETV
attr interpolationmode sample-hold
attr source transmissionStateChanged
attr title "tx state, vector"
vector 18 scenario.client4.ppp[2].ppp transmissionState:vector ETV
attr interpolationmode sample-hold
attr source transmissionStateChanged
attr title "tx state, vector"
vector 19 scenario.client4.ppp[3].ppp transmissionState:vector ETV
attr interpolationmode sample-hold
attr source transmissionStateChanged
attr title "tx state, vector"
vector 20 scenario.client1.tcp.conn-25 tcpRcvQueueBytes:vector ETV
attr interpolationmode sample-hold
vector 21 scenario.client1.tcp.conn-25 rcvAdv:vector ETV
attr interpolationmode sample-hold
vector 22 scenario.client1.tcp.conn-25 rcvWnd:vector ETV
attr interpolationmode sample-hold
vector 23 scenario.client1.tcp.conn-25 sndAck:vector ETV
attr interpolationmode sample-hold
vector 24 scenario.client1.ppp[2].ppp rcvdPkFromHl:vector(packetBytes) ETV
attr interpolationmode none
attr source packetReceivedFromUpper
attr title "packets received from higher layer, vector(packetBytes)"
vector 25 scenario.client1.ppp[2].ppp.queue packetPushed:vector(packetBytes) ETV
attr interpolationmode none
attr title "packet pushed, vector(packetBytes)"
vector 26 scenario.client1.ppp[2].ppp.queue queueLength:vector ETV
attr interpolationmode sample-hold
attr source "count(packetPushed) - count(packetPopped) - count(packetRemoved) - count(packetDropped)"
attr title "queue length, vector"
vector 27 scenario.client1.ppp[2].ppp.queue packetPopped:vector(packetBytes) ETV
attr interpolationmode none
attr title "packet popped, vector(packetBytes)"
vector 28 scenario.client1.ppp[2].ppp.queue queueingTime:vector ETV
attr interpolationmode none
attr source queueingTime(packetPopped)
attr title "queueing times, vector"
attr unit s
vector 29 scenario.client1.ppp[2].ppp txPk:vector(packetBytes) ETV
attr interpolationmode none
attr source packetSentToLower
attr title "packets transmitted, vector(packetBytes)"
vector 30 scenario.client3.ppp[1].ppp rxPkOk:vector(packetBytes) ETV
attr interpolationmode none
attr source rxPkOk
attr title "packets received OK, vector(packetBytes)"
vector 31 scenario.client3.ppp[1].ppp passedUpPk:vector(packetBytes) ETV
attr interpolationmode none
attr source packetSentToUpper
attr title "packets passed to higher layer, vector(packetBytes)"
vector 32 scenario.client3.tcp.conn-3 rcvSeq:vector ETV
attr interpolationmode sample-hold
vector 33 scenario.client3.tcp.conn-3 rcvAck:vector ETV
attr interpolationmode sample-hold
vector 34 scenario.client3.tcp.conn-26 rcvAdv:vector ETV
attr interpolationmode sample-hold
vector 35 scenario.client3.tcp.conn-26 sndWnd:vector ETV
attr interpolationmode sample-hold
vector 36 scenario.client3.tcp.conn-26 tcpRcvQueueBytes:vector ETV
attr interpolationmode sample-hold
vector 37 scenario.client3.tcp.conn-26 rcvWnd:vector ETV
attr interpolationmode sample-hold
vector 38 scenario.client3.tcp.conn-26 sndAck:vector ETV
attr interpolationmode sample-hold
vector 39 scenario.client3.ppp[1].ppp rcvdPkFromHl:vector(packetBytes) ETV
attr interpolationmode none
attr source packetReceivedFromUpper
attr title "packets received from higher layer, vector(packetBytes)"
vector 40 scenario.client3.ppp[1].ppp.queue packetPushed:vector(packetBytes) ETV
attr interpolationmode none
attr title "packet pushed, vector(packetBytes)"
vector 41 scenario.client3.ppp[1].ppp.queue queueLength:vector ETV
attr interpolationmode sample-hold
attr source "count(packetPushed) - count(packetPopped) - count(packetRemoved) - count(packetDropped)"
attr title "queue length, vector"
vector 42 scenario.client3.ppp[1].ppp.queue packetPopped:vector(packetBytes) ETV
attr interpolationmode none
attr title "packet popped, vector(packetBytes)"
vector 43 scenario.client3.ppp[1].ppp.queue queueingTime:vector ETV
attr interpolationmode none
attr source queueingTime(packetPopped)
attr title "queueing times, vector"
attr unit s
vector 44 scenario.client3.ppp[1].ppp txPk:vector(packetBytes) ETV
attr interpolationmode none
attr source packetSentToLower
attr title "packets transmitted, vector(packetBytes)"
vector 45 scenario.client1.ppp[2].ppp rxPkOk:vector(packetBytes) ETV
attr interpolationmode none
attr source rxPkOk
attr title "packets received OK, vector(packetBytes)"
vector 46 scenario.client1.ppp[2].ppp passedUpPk:vector(packetBytes) ETV
attr interpolationmode none
attr source packetSentToUpper
attr title "packets passed to higher layer, vector(packetBytes)"
vector 47 scenario.client1.tcp.conn-25 rcvSeq:vector ETV
attr interpolationmode sample-hold
vector 48 scenario.client1.tcp.conn-25 rcvAck:vector ETV
attr interpolationmode sample-hold
vector 49 scenario.client1.tcp.conn-25 sndWnd:vector ETV
attr interpolationmode sample-hold
vector 50 scenario.client1.tcp.conn-25 unacked:vector ETV
attr interpolationmode sample-hold
vector 51 scenario.client3.tcp.conn-26 rcvSeq:vector ETV
attr interpolationmode sample-hold
vector 52 scenario.client3.tcp.conn-26 rcvAck:vector ETV
attr interpolationmode sample-hold
vector 53 scenario.client3.tcp.conn-26 unacked:vector ETV
attr interpolationmode sample-hold
vector 54 scenario.client3.tcp.conn-26 cwnd:vector ETV
attr interpolationmode sample-hold
vector 55 scenario.client3.tcp.conn-26 ssthresh:vector ETV
attr interpolationmode sample-hold
vector 56 scenario.client3.tcp.conn-26 dupAcks:vector ETV
attr interpolationmode sample-hold
vector 57 scenario.client1.tcp.conn-25 rtt:vector ETV
attr interpolationmode sample-hold
vector 58 scenario.client1.tcp.conn-25 srtt:vector ETV
attr interpolationmode sample-hold
vector 59 scenario.client1.tcp.conn-25 rttvar:vector ETV
attr interpolationmode sample-hold
vector 60 scenario.client1.tcp.conn-25 rto:vector ETV
attr interpolationmode sample-hold
vector 61 scenario.client1.tcp.conn-25 cwnd:vector ETV
attr interpolationmode sample-hold
vector 62 scenario.client1.tcp.conn-25 ssthresh:vector ETV
attr interpolationmode sample-hold
vector 63 scenario.client1.tcp.conn-25 dupAcks:vector ETV
attr interpolationmode sample-hold
vector 64 scenario.client1.tcp.conn-27 tcpRcvQueueBytes:vector ETV
attr interpolationmode sample-hold
vector 65 scenario.client1.tcp.conn-27 rcvAdv:vector ETV
attr interpolationmode sample-hold
vector 66 scenario.client1.tcp.conn-27 rcvWnd:vector ETV
attr interpolationmode sample-hold
vector 67 scenario.client1.tcp.conn-27 sndAck:vector ETV
attr interpolationmode sample-hold
vector 68 scenario.client1.ppp[0].ppp rcvdPkFromHl:vector(packetBytes) ETV
attr interpolationmode none
attr source packetReceivedFromUpper
attr title "packets received from higher layer, vector(packetBytes)"
vector 69 scenario.client1.ppp[0].ppp.queue packetPushed:vector(packetBytes) ETV
attr interpolationmode none
attr title "packet pushed, vector(packetBytes)"
vector 70 scenario.client1.ppp[0].ppp.queue queueLength:vector ETV
attr interpolationmode sample-hold
attr source "count(packetPushed) - count(packetPopped) - count(packetRemoved) - count(packetDropped)"
attr title "queue length, vector"
vector 71 scenario.client1.ppp[0].ppp.queue packetPopped:vector(packetBytes) ETV
attr interpolationmode none
attr title "packet popped, vector(packetBytes)"
vector 72 scenario.client1.ppp[0].ppp.queue queueingTime:vector ETV
attr interpolationmode none
attr source queueingTime(packetPopped)
attr title "queueing times, vector"
attr unit s
vector 73 scenario.client1.ppp[0].ppp txPk:vector(packetBytes) ETV
attr interpolationmode none
attr source packetSentToLower
attr title "packets transmitted, vector(packetBytes)"
vector 74 scenario.client0.ppp[0].ppp rxPkOk:vector(packetBytes) ETV
attr interpolationmode none
attr source rxPkOk
attr title "packets received OK, vector(packetBytes)"
vector 75 scenario.client0.ppp[0].ppp passedUpPk:vector(packetBytes) ETV
attr interpolationmode none
attr source packetSentToUpper
attr title "packets passed to higher layer, vector(packetBytes)"
vector 76 scenario.client0.tcp.conn-0 rcvSeq:vector ETV
attr interpolationmode sample-hold
vector 77 scenario.client0.tcp.conn-0 rcvAck:vector ETV
attr interpolationmode sample-hold
vector 78 scenario.client0.tcp.conn-28 rcvAdv:vector ETV
attr interpolationmode sample-hold
vector 79 scenario.client0.tcp.conn-28 sndWnd:vector ETV
attr interpolationmode sample-hold
vector 80 scenario.client0.tcp.conn-28 tcpRcvQueueBytes:vector ETV
attr interpolationmode sample-hold
vector 81 scenario.client0.tcp.conn-28 rcvWnd:vector ETV
attr interpolationmode sample-hold
vector 82 scenario.client0.tcp.conn-28 sndAck:vector ETV
attr interpolationmode sample-hold
vector 83 scenario.client0.ppp[0].ppp rcvdPkFromHl:vector(packetBytes) ETV
attr interpolationmode none
attr source packetReceivedFromUpper
attr title "packets received from higher layer, vector(packetBytes)"
vector 84 scenario.client0.ppp[0].ppp.queue packetPushed:vector(packetBytes) ETV
attr interpolationmode none
attr title "packet pushed, vector(packetBytes)"
vector 85 scenario.client0.ppp[0].ppp.queue queueLength:vector ETV
attr interpolationmode sample-hold
attr source "count(packetPushed) - count(packetPopped) - count(packetRemoved) - count(packetDropped)"
attr title "queue length, vector"
vector 86 scenario.client0.ppp[0].ppp.queue packetPopped:vector(packetBytes) ETV
attr interpolationmode none
attr title "packet popped, vector(packetBytes)"
vector 87 scenario.client0.ppp[0].ppp.queue queueingTime:vector ETV
attr interpolationmode none
attr source queueingTime(packetPopped)
attr title "queueing times, vector"
attr unit s
vector 88 scenario.client0.ppp[0].ppp txPk:vector(packetBytes) ETV
attr interpolationmode none
attr source packetSentToLower
attr title "packets transmitted, vector(packetBytes)"
vector 89 scenario.client1.ppp[0].ppp rxPkOk:vector(packetBytes) ETV
attr interpolationmode none
attr source rxPkOk
attr title "packets received OK, vector(packetBytes)"
vector 90 scenario.client1.ppp[0].ppp passedUpPk:vector(packetBytes) ETV
attr interpolationmode none
attr source packetSentToUpper
attr title "packets passed to higher layer, vector(packetBytes)"
vector 91 scenario.client1.tcp.conn-27 rcvSeq:vector ETV
attr interpolationmode sample-hold
vector 92 scenario.client1.tcp.conn-27 rcvAck:vector ETV
attr interpolationmode sample-hold
vector 93 scenario.client1.tcp.conn-27 sndWnd:vector ETV
attr interpolationmode sample-hold
vector 94 scenario.client1.tcp.conn-27 unacked:vector ETV
attr interpolationmode sample-hold
vector 95 scenario.client0.tcp.conn-28 rcvSeq:vector ETV
attr interpolationmode sample-hold
vector 96 scenario.client0.tcp.conn-28 rcvAck:vector ETV
attr interpolationmode sample-hold
vector 97 scenario.client0.tcp.conn-28 unacked:vector ETV
attr interpolationmode sample-hold
vector 98 scenario.client0.tcp.conn-28 cwnd:vector ETV
attr interpolationmode sample-hold
vector 99 scenario.client0.tcp.conn-28 ssthresh:vector ETV
attr interpolationmode sample-hold
vector 100 scenario.client0.tcp.conn-28 dupAcks:vector ETV
attr interpolationmode sample-hold
vector 101 scenario.client1.tcp.conn-27 rtt:vector ETV
attr interpolationmode sample-hold
vector 102 scenario.client1.tcp.conn-27 srtt:vector ETV
attr interpolationmode sample-hold
vector 103 scenario.client1.tcp.conn-27 rttvar:vector ETV
attr interpolationmode sample-hold
vector 104 scenario.client1.tcp.conn-27 rto:vector ETV
attr interpolationmode sample-hold
vector 105 scenario.client1.tcp.conn-27 cwnd:vector ETV
attr interpolationmode sample-hold
vector 106 scenario.client1.tcp.conn-27 ssthresh:vector ETV
attr interpolationmode sample-hold
vector 107 scenario.client1.tcp.conn-27 dupAcks:vector ETV
attr interpolationmode sample-hold
vector 108 scenario.client1.tcp.conn-29 tcpRcvQueueBytes:vector ETV
attr interpolationmode sample-hold
vector 109 scenario.client1.tcp.conn-29 rcvAdv:vector ETV
attr interpolationmode sample-hold
vector 110 scenario.client1.tcp.conn-29 rcvWnd:vector ETV
attr interpolationmode sample-hold
vector 111 scenario.client1.tcp.conn-29 sndAck:vector ETV
attr interpolationmode sample-hold
vector 112 scenario.client1.ppp[3].ppp rcvdPkFromHl:vector(packetBytes) ETV
attr interpolationmode none
attr source packetReceivedFromUpper
attr title "packets received from higher layer, vector(packetBytes)"
vector 113 scenario.client1.ppp[3].ppp.queue packetPushed:vector(packetBytes) ETV
attr interpolationmode none
attr title "packet pushed, vector(packetBytes)"
vector 114 scenario.client1.ppp[3].ppp.queue queueLength:vector ETV
attr interpolationmode sample-hold
attr source "count(packetPushed) - count(packetPopped) - count(packetRemoved) - count(packetDropped)"
attr title "queue length, vector"
vector 115 scenario.client1.ppp[3].ppp.queue packetPopped:vector(packetBytes) ETV
attr interpolationmode none
attr title "packet popped, vector(packetBytes)"
vector 116 scenario.client1.ppp[3].ppp.queue queueingTime:vector ETV
attr interpolationmode none
attr source queueingTime(packetPopped)
attr title "queueing times, vector"
attr unit s
vector 117 scenario.client1.ppp[3].ppp txPk:vector(packetBytes) ETV
attr interpolationmode none
attr source packetSentToLower
attr title "packets transmitted, vector(packetBytes)"
vector 118 scenario.client4.ppp[1].ppp rxPkOk:vector(packetBytes) ETV
attr interpolationmode none
attr source rxPkOk
attr title "packets received OK, vector(packetBytes)"
vector 119 scenario.client4.ppp[1].ppp passedUpPk:vector(packetBytes) ETV
attr interpolationmode none
attr source packetSentToUpper
attr title "packets passed to higher layer, vector(packetBytes)"
vector 120 scenario.client4.tcp.conn-4 rcvSeq:vector ETV
attr interpolationmode sample-hold
vector 121 scenario.client4.tcp.conn-4 rcvAck:vector ETV
attr interpolationmode sample-hold
vector 122 scenario.client4.tcp.conn-30 rcvAdv:vector ETV
attr interpolationmode sample-hold
vector 123 scenario.client4.tcp.conn-30 sndWnd:vector ETV
attr interpolationmode sample-hold
vector 124 scenario.client4.tcp.conn-30 tcpRcvQueueBytes:vector ETV
attr interpolationmode sample-hold
vector 125 scenario.client4.tcp.conn-30 rcvWnd:vector ETV
attr interpolationmode sample-hold
vector 126 scenario.client4.tcp.conn-30 sndAck:vector ETV
attr interpolationmode sample-hold
vector 127 scenario.client4.ppp[1].ppp rcvdPkFromHl:vector(packetBytes) ETV
attr interpolationmode none
attr source packetReceivedFromUpper
attr title "packets received from higher layer, vector(packetBytes)"
vector 128 scenario.client4.ppp[1].ppp.queue packetPushed:vector(packetBytes) ETV
attr interpolationmode none
attr title "packet pushed, vector(packetBytes)"
vector 129 scenario.client4.ppp[1].ppp.queue queueLength:vector ETV
attr interpolationmode sample-hold
attr source "count(packetPushed) - count(packetPopped) - count(packetRemoved) - count(packetDropped)"
attr title "queue length, vector"
vector 130 scenario.client4.ppp[1].ppp.queue packetPopped:vector(packetBytes) ETV
attr interpolationmode none
attr title "packet popped, vector(packetBytes)"
vector 131 scenario.client4.ppp[1].ppp.queue queueingTime:vector ETV
attr interpolationmode none
attr source queueingTime(packetPopped)
attr title "queueing times, vector"
attr unit s
vector 132 scenario.client4.ppp[1].ppp txPk:vector(packetBytes) ETV
attr interpolationmode none
attr source packetSentToLower
attr title "packets transmitted, vector(packetBytes)"
vector 133 scenario.client1.ppp[3].ppp rxPkOk:vector(packetBytes) ETV
attr interpolationmode none
attr source rxPkOk
attr title "packets received OK, vector(packetBytes)"
vector 134 scenario.client1.ppp[3].ppp passedUpPk:vector(packetBytes) ETV
attr interpolationmode none
attr source packetSentToUpper
attr title "packets passed to higher layer, vector(packetBytes)"
vector 135 scenario.client1.tcp.conn-29 rcvSeq:vector ETV
attr interpolationmode sample-hold
vector 136 scenario.client1.tcp.conn-29 rcvAck:vector ETV
attr interpolationmode sample-hold
vector 137 scenario.client1.tcp.conn-29 sndWnd:vector ETV
attr interpolationmode sample-hold
vector 138 scenario.client1.tcp.conn-29 unacked:vector ETV
attr interpolationmode sample-hold
vector 139 scenario.client4.tcp.conn-30 rcvSeq:vector ETV
attr interpolationmode sample-hold
vector 140 scenario.client4.tcp.conn-30 rcvAck:vector ETV
attr interpolationmode sample-hold
vector 141 scenario.client4.tcp.conn-30 unacked:vector ETV
attr interpolationmode sample-hold
vector 142 scenario.client4.tcp.conn-30 cwnd:vector ETV
attr interpolationmode sample-hold
vector 143 scenario.client4.tcp.conn-30 ssthresh:vector ETV
attr interpolationmode sample-hold
vector 144 scenario.client4.tcp.conn-30 dupAcks:vector ETV
attr interpolationmode sample-hold
vector 145 scenario.client1.tcp.conn-29 rtt:vector ETV
attr interpolationmode sample-hold
vector 146 scenario.client1.tcp.conn-29 srtt:vector ETV
attr interpolationmode sample-hold
vector 147 scenario.client1.tcp.conn-29 rttvar:vector ETV
attr interpolationmode sample-hold
vector 148 scenario.client1.tcp.conn-29 rto:vector ETV
attr interpolationmode sample-hold
vector 149 scenario.client1.tcp.conn-29 cwnd:vector ETV
attr interpolationmode sample-hold
vector 150 scenario.client1.tcp.conn-29 ssthresh:vector ETV
attr interpolationmode sample-hold
vector 151 scenario.client1.tcp.conn-29 dupAcks:vector ETV
attr interpolationmode sample-hold
vector 152 scenario.client1.tcp.conn-31 tcpRcvQueueBytes:vector ETV
attr interpolationmode sample-hold
vector 153 scenario.client1.tcp.conn-31 rcvAdv:vector ETV
attr interpolationmode sample-hold
vector 154 scenario.client1.tcp.conn-31 rcvWnd:vector ETV
attr interpolationmode sample-hold
vector 155 scenario.client1.tcp.conn-31 sndAck:vector ETV
attr interpolationmode sample-hold
vector 156 scenario.client1.ppp[1].ppp rcvdPkFromHl:vector(packetBytes) ETV
attr interpolationmode none
attr source packetReceivedFromUpper
attr title "packets received from higher layer, vector(packetBytes)"
vector 157 scenario.client1.ppp[1].ppp.queue packetPushed:vector(packetBytes) ETV
attr interpolationmode none
attr title "packet pushed, vector(packetBytes)"
vector 158 scenario.client1.ppp[1].ppp.queue queueLength:vector ETV
attr interpolationmode sample-hold
attr source "count(packetPushed) - count(packetPopped) - count(packetRemoved) - count(packetDropped)"
attr title "queue length, vector"
vector 159 scenario.client1.ppp[1].ppp.queue packetPopped:vector(packetBytes) ETV
attr interpolationmode none
attr title "packet popped, vector(packetBytes)"
vector 160 scenario.client1.ppp[1].ppp.queue queueingTime:vector ETV
attr interpolationmode none
attr source queueingTime(packetPopped)
attr title "queueing times, vector"
attr unit s
vector 161 scenario.client1.ppp[1].ppp txPk:vector(packetBytes) ETV
attr interpolationmode none
attr source packetSentToLower
attr title "packets transmitted, vector(packetBytes)"
vector 162 scenario.client2.ppp[1].ppp rxPkOk:vector(packetBytes) ETV
attr interpolationmode none
attr source rxPkOk
attr title "packets received OK, vector(packetBytes)"
vector 163 scenario.client2.ppp[1].ppp passedUpPk:vector(packetBytes) ETV
attr interpolationmode none
attr source packetSentToUpper
attr title "packets passed to higher layer, vector(packetBytes)"
vector 164 scenario.client2.tcp.conn-2 rcvSeq:vector ETV
attr interpolationmode sample-hold
vector 165 scenario.client2.tcp.conn-2 rcvAck:vector ETV
attr interpolationmode sample-hold
vector 166 scenario.client2.tcp.conn-32 rcvAdv:vector ETV
attr interpolationmode sample-hold
vector 167 scenario.client2.tcp.conn-32 sndWnd:vector ETV
attr interpolationmode sample-hold
vector 168 scenario.client2.tcp.conn-32 tcpRcvQueueBytes:vector ETV
attr interpolationmode sample-hold
vector 169 scenario.client2.tcp.conn-32 rcvWnd:vector ETV
attr interpolationmode sample-hold
vector 170 scenario.client2.tcp.conn-32 sndAck:vector ETV
attr interpolationmode sample-hold
vector 171 scenario.client2.ppp[1].ppp rcvdPkFromHl:vector(packetBytes) ETV
attr interpolationmode none
attr source packetReceivedFromUpper
attr title "packets received from higher layer, vector(packetBytes)"
vector 172 scenario.client2.ppp[1].ppp.queue packetPushed:vector(packetBytes) ETV
attr interpolationmode none
attr title "packet pushed, vector(packetBytes)"
vector 173 scenario.client2.ppp[1].ppp.queue queueLength:vector ETV
attr interpolationmode sample-hold
attr source "count(packetPushed) - count(packetPopped) - count(packetRemoved) - count(packetDropped)"
attr title "queue length, vector"
vector 174 scenario.client2.ppp[1].ppp.queue packetPopped:vector(packetBytes) ETV
attr interpolationmode none
attr title "packet popped, vector(packetBytes)"
vector 175 scenario.client2.ppp[1].ppp.queue queueingTime:vector ETV
attr interpolationmode none
attr source queueingTime(packetPopped)
attr title "queueing times, vector"
attr unit s
vector 176 scenario.client2.ppp[1].ppp txPk:vector(packetBytes) ETV
attr interpolationmode none
attr source packetSentToLower
attr title "packets transmitted, vector(packetBytes)"
vector 177 scenario.client1.ppp[1].ppp rxPkOk:vector(packetBytes) ETV
attr interpolationmode none
attr source rxPkOk
attr title "packets received OK, vector(packetBytes)"
vector 178 scenario.client1.ppp[1].ppp passedUpPk:vector(packetBytes) ETV
attr interpolationmode none
attr source packetSentToUpper
attr title "packets passed to higher layer, vector(packetBytes)"
vector 179 scenario.client1.tcp.conn-31 rcvSeq:vector ETV
attr interpolationmode sample-hold
vector 180 scenario.client1.tcp.conn-31 rcvAck:vector ETV
attr interpolationmode sample-hold
vector 181 scenario.client1.tcp.conn-31 sndWnd:vector ETV
attr interpolationmode sample-hold
vector 182 scenario.client1.tcp.conn-31 unacked:vector ETV
attr interpolationmode sample-hold
vector 183 scenario.client2.tcp.conn-32 rcvSeq:vector ETV
attr interpolationmode sample-hold
vector 184 scenario.client2.tcp.conn-32 rcvAck:vector ETV
attr interpolationmode sample-hold
vector 185 scenario.client2.tcp.conn-32 unacked:vector ETV
attr interpolationmode sample-hold
vector 186 scenario.client2.tcp.conn-32 cwnd:vector ETV
attr interpolationmode sample-hold
vector 187 scenario.client2.tcp.conn-32 ssthresh:vector ETV
attr interpolationmode sample-hold
vector 188 scenario.client2.tcp.conn-32 dupAcks:vector ETV
attr interpolationmode sample-hold
vector 189 scenario.client1.tcp.conn-31 rtt:vector ETV
attr interpolationmode sample-hold
vector 190 scenario.client1.tcp.conn-31 srtt:vector ETV
attr interpolationmode sample-hold
vector 191 scenario.client1.tcp.conn-31 rttvar:vector ETV
attr interpolationmode sample-hold
vector 192 scenario.client1.tcp.conn-31 rto:vector ETV
attr interpolationmode sample-hold
vector 193 scenario.client1.tcp.conn-31 cwnd:vector ETV
attr interpolationmode sample-hold
vector 194 scenario.client1.tcp.conn-31 ssthresh:vector ETV
attr interpolationmode sample-hold
vector 195 scenario.client1.tcp.conn-31 dupAcks:vector ETV
attr interpolationmode sample-hold
vector 196 scenario.client0.tcp.conn-33 tcpRcvQueueBytes:vector ETV
attr interpolationmode sample-hold
vector 197 scenario.client0.tcp.conn-33 rcvAdv:vector ETV
attr interpolationmode sample-hold
vector 198 scenario.client0.tcp.conn-33 rcvWnd:vector ETV
attr interpolationmode sample-hold
vector 199 scenario.client0.tcp.conn-33 sndAck:vector ETV
attr interpolationmode sample-hold
vector 200 scenario.client1.tcp.conn-1 rcvSeq:vector ETV
attr interpolationmode sample-hold
vector 201 scenario.client1.tcp.conn-1 rcvAck:vector ETV
attr interpolationmode sample-hold
vector 202 scenario.client1.tcp.conn-34 rcvAdv:vector ETV
attr interpolationmode sample-hold
vector 203 scenario.client1.tcp.conn-34 sndWnd:vector ETV
attr interpolationmode sample-hold
vector 204 scenario.client1.tcp.conn-34 tcpRcvQueueBytes:vector ETV
attr interpolationmode sample-hold
vector 205 scenario.client1.tcp.conn-34 rcvWnd:vector ETV
attr interpolationmode sample-hold
vector 206 scenario.client1.tcp.conn-34 sndAck:vector ETV
attr interpolationmode sample-hold
vector 207 scenario.client0.tcp.conn-33 rcvSeq:vector ETV
attr interpolationmode sample-hold
vector 208 scenario.client0.tcp.conn-33 rcvAck:vector ETV
attr interpolationmode sample-hold
vector 209 scenario.client0.tcp.conn-33 sndWnd:vector ETV
attr interpolationmode sample-hold
vector 210 scenario.client0.tcp.conn-33 unacked:vector ETV
attr interpolationmode sample-hold
vector 211 scenario.client1.tcp.conn-34 rcvSeq:vector ETV
attr interpolationmode sample-hold
vector 212 scenario.client1.tcp.conn-34 rcvAck:vector ETV
attr interpolationmode sample-hold
vector 213 scenario.client1.tcp.conn-34 unacked:vector ETV
attr interpolationmode sample-hold
vector 214 scenario.client1.tcp.conn-34 cwnd:vector ETV
attr interpolationmode sample-hold
vector 215 scenario.client1.tcp.conn-34 ssthresh:vector ETV
attr interpolationmode sample-hold
vector 216 scenario.client1.tcp.conn-34 dupAcks:vector ETV
attr interpolationmode sample-hold
vector 217 scenario.client0.tcp.conn-33 rtt:vector ETV
attr interpolationmode sample-hold
vector 218 scenario.client0.tcp.conn-33 srtt:vector ETV
attr interpolationmode sample-hold
vector 219 scenario.client0.tcp.conn-33 rttvar:vector ETV
attr interpolationmode sample-hold
vector 220 scenario.client0.tcp.conn-33 rto:vector ETV
attr interpolationmode sample-hold
vector 221 scenario.client0.tcp.conn-33 cwnd:vector ETV
attr interpolationmode sample-hold
vector 222 scenario.client0.tcp.conn-33 ssthresh:vector ETV
attr interpolationmode sample-hold
vector 223 scenario.client0.tcp.conn-33 dupAcks:vector ETV
attr interpolationmode sample-hold
vector 224 scenario.client4.tcp.conn-35 tcpRcvQueueBytes:vector ETV
attr interpolationmode sample-hold
vector 225 scenario.client4.tcp.conn-35 rcvAdv:vector ETV
attr interpolationmode sample-hold
vector 226 scenario.client4.tcp.conn-35 rcvWnd:vector ETV
attr interpolationmode sample-hold
vector 227 scenario.client4.tcp.conn-35 sndAck:vector ETV
attr interpolationmode sample-hold
vector 228 scenario.client1.tcp.conn-36 rcvAdv:vector ETV
attr interpolationmode sample-hold
vector 229 scenario.client1.tcp.conn-36 sndWnd:vector ETV
attr interpolationmode sample-hold
vector 230 scenario.client1.tcp.conn-36 tcpRcvQueueBytes:vector ETV
attr interpolationmode sample-hold
vector 231 scenario.client1.tcp.conn-36 rcvWnd:vector ETV
attr interpolationmode sample-hold
vector 232 scenario.client1.tcp.conn-36 sndAck:vector ETV
attr interpolationmode sample-hold
vector 233 scenario.client4.tcp.conn-35 rcvSeq:vector ETV
attr interpolationmode sample-hold
vector 234 scenario.client4.tcp.conn-35 rcvAck:vector ETV
attr interpolationmode sample-hold
vector 235 scenario.client4.tcp.conn-35 sndWnd:vector ETV
attr interpolationmode sample-hold
vector 236 scenario.client4.tcp.conn-35 unacked:vector ETV
attr interpolationmode sample-hold
vector 237 scenario.client1.tcp.conn-36 rcvSeq:vector ETV
attr interpolationmode sample-hold
vector 238 scenario.client1.tcp.conn-36 rcvAck:vector ETV
attr interpolationmode sample-hold
vector 239 scenario.client1.tcp.conn-36 unacked:vector ETV
attr interpolationmode sample-hold
vector 240 scenario.client1.tcp.conn-36 cwnd:vector ETV
attr interpolationmode sample-hold
vector 241 scenario.client1.tcp.conn-36 ssthresh:vector ETV
attr interpolationmode sample-hold
vector 242 scenario.client1.tcp.conn-36 dupAcks:vector ETV
attr interpolationmode sample-hold
vector 243 scenario.client4.tcp.conn-35 rtt:vector ETV
attr interpolationmode sample-hold
vector 244 scenario.client4.tcp.conn-35 srtt:vector ETV
attr interpolationmode sample-hold
vector 245 scenario.client4.tcp.conn-35 rttvar:vector ETV
attr interpolationmode sample-hold
vector 246 scenario.client4.tcp.conn-35 rto:vector ETV
attr interpolationmode sample-hold
vector 247 scenario.client4.tcp.conn-35 cwnd:vector ETV
attr interpolationmode sample-hold
vector 248 scenario.client4.tcp.conn-35 ssthresh:vector ETV
attr interpolationmode sample-hold
vector 249 scenario.client4.tcp.conn-35 dupAcks:vector ETV
attr interpolationmode sample-hold
vector 250 scenario.client2.tcp.conn-37 tcpRcvQueueBytes:vector ETV
attr interpolationmode sample-hold
vector 251 scenario.client2.tcp.conn-37 rcvAdv:vector ETV
attr interpolationmode sample-hold
vector 252 scenario.client2.tcp.conn-37 rcvWnd:vector ETV
attr interpolationmode sample-hold
vector 253 scenario.client2.tcp.conn-37 sndAck:vector ETV
attr interpolationmode sample-hold
vector 254 scenario.client1.tcp.conn-38 rcvAdv:vector ETV
attr interpolationmode sample-hold
vector 255 scenario.client1.tcp.conn-38 sndWnd:vector ETV
attr interpolationmode sample-hold
vector 256 scenario.client1.tcp.conn-38 tcpRcvQueueBytes:vector ETV
attr interpolationmode sample-hold
vector 257 scenario.client1.tcp.conn-38 rcvWnd:vector ETV
attr interpolationmode sample-hold
vector 258 scenario.client1.tcp.conn-38 sndAck:vector ETV
attr interpolationmode sample-hold
vector 259 scenario.client2.tcp.conn-37 rcvSeq:vector ETV
attr interpolationmode sample-hold
vector 260 scenario.client2.tcp.conn-37 rcvAck:vector ETV
attr interpolationmode sample-hold
vector 261 scenario.client2.tcp.conn-37 sndWnd:vector ETV
attr interpolationmode sample-hold
vector 262 scenario.client2.tcp.conn-37 unacked:vector ETV
attr interpolationmode sample-hold
vector 263 scenario.client1.tcp.conn-38 rcvSeq:vector ETV
attr interpolationmode sample-hold
vector 264 scenario.client1.tcp.conn-38 rcvAck:vector ETV
attr interpolationmode sample-hold
vector 265 scenario.client1.tcp.conn-38 unacked:vector ETV
attr interpolationmode sample-hold
vector 266 scenario.client1.tcp.conn-38 cwnd:vector ETV
attr interpolationmode sample-hold
vector 267 scenario.client1.tcp.conn-38 ssthresh:vector ETV
attr interpolationmode sample-hold
vector 268 scenario.client1.tcp.conn-38 dupAcks:vector ETV
attr interpolationmode sample-hold
vector 269 scenario.client2.tcp.conn-37 rtt:vector ETV
attr interpolationmode sample-hold
vector 270 scenario.client2.tcp.conn-37 srtt:vector ETV
attr interpolationmode sample-hold
vector 271 scenario.client2.tcp.conn-37 rttvar:vector ETV
attr interpolationmode sample-hold
vector 272 scenario.client2.tcp.conn-37 rto:vector ETV
attr interpolationmode sample-hold
vector 273 scenario.client2.tcp.conn-37 cwnd:vector ETV
attr interpolationmode sample-hold
vector 274 scenario.client2.tcp.conn-37 ssthresh:vector ETV
attr interpolationmode sample-hold
vector 275 scenario.client2.tcp.conn-37 dupAcks:vector ETV
attr interpolationmode sample-hold
vector 276 scenario.client3.tcp.conn-39 tcpRcvQueueBytes:vector ETV
attr interpolationmode sample-hold
vector 277 scenario.client3.tcp.conn-39 rcvAdv:vector ETV
attr interpolationmode sample-hold
vector 278 scenario.client3.tcp.conn-39 rcvWnd:vector ETV
attr interpolationmode sample-hold
vector 279 scenario.client3.tcp.conn-39 sndAck:vector ETV
attr interpolationmode sample-hold
vector 280 scenario.client1.tcp.conn-40 rcvAdv:vector ETV
attr interpolationmode sample-hold
vector 281 scenario.client1.tcp.conn-40 sndWnd:vector ETV
attr interpolationmode sample-hold
vector 282 scenario.client1.tcp.conn-40 tcpRcvQueueBytes:vector ETV
attr interpolationmode sample-hold
vector 283 scenario.client1.tcp.conn-40 rcvWnd:vector ETV
attr interpolationmode sample-hold
vector 284 scenario.client1.tcp.conn-40 sndAck:vector ETV
attr interpolationmode sample-hold
vector 285 scenario.client3.tcp.conn-39 rcvSeq:vector ETV
attr interpolationmode sample-hold
vector 286 scenario.client3.tcp.conn-39 rcvAck:vector ETV
attr interpolationmode sample-hold
vector 287 scenario.client3.tcp.conn-39 sndWnd:vector ETV
attr interpolationmode sample-hold
vector 288 scenario.client3.tcp.conn-39 unacked:vector ETV
attr interpolationmode sample-hold
vector 289 scenario.client1.tcp.conn-40 rcvSeq:vector ETV
attr interpolationmode sample-hold
vector 290 scenario.client1.tcp.conn-40 rcvAck:vector ETV
attr interpolationmode sample-hold
vector 291 scenario.client1.tcp.conn-40 unacked:vector ETV
attr interpolationmode sample-hold
vector 292 scenario.client1.tcp.conn-40 cwnd:vector ETV
attr interpolationmode sample-hold
vector 293 scenario.client1.tcp.conn-40 ssthresh:vector ETV
attr interpolationmode sample-hold
vector 294 scenario.client1.tcp.conn-40 dupAcks:vector ETV
attr interpolationmode sample-hold
vector 295 scenario.client3.tcp.conn-39 rtt:vector ETV
attr interpolationmode sample-hold
vector 296 scenario.client3.tcp.conn-39 srtt:vector ETV
attr interpolationmode sample-hold
vector 297 scenario.client3.tcp.conn-39 rttvar:vector ETV
attr interpolationmode sample-hold
vector 298 scenario.client3.tcp.conn-39 rto:vector ETV
attr interpolationmode sample-hold
vector 299 scenario.client3.tcp.conn-39 cwnd:vector ETV
attr interpolationmode sample-hold
vector 300 scenario.client3.tcp.conn-39 ssthresh:vector ETV
attr interpolationmode sample-hold
vector 301 scenario.client3.tcp.conn-39 dupAcks:vector ETV
attr interpolationmode sample-hold
vector 302 scenario.client3.tcp.conn-41 tcpRcvQueueBytes:vector ETV
attr interpolationmode sample-hold
vector 303 scenario.client3.tcp.conn-41 rcvAdv:vector ETV
attr interpolationmode sample-hold
vector 304 scenario.client3.tcp.conn-41 rcvWnd:vector ETV
attr interpolationmode sample-hold
vector 305 scenario.client3.tcp.conn-41 sndAck:vector ETV
attr interpolationmode sample-hold
vector 306 scenario.client3.ppp[0].ppp rcvdPkFromHl:vector(packetBytes) ETV
attr interpolationmode none
attr source packetReceivedFromUpper
attr title "packets received from higher layer, vector(packetBytes)"
vector 307 scenario.client3.ppp[0].ppp.queue packetPushed:vector(packetBytes) ETV
attr interpolationmode none
attr title "packet pushed, vector(packetBytes)"
vector 308 scenario.client3.ppp[0].ppp.queue queueLength:vector ETV
attr interpolationmode sample-hold
attr source "count(packetPushed) - count(packetPopped) - count(packetRemoved) - count(packetDropped)"
attr title "queue length, vector"
vector 309 scenario.client3.ppp[0].ppp.queue packetPopped:vector(packetBytes) ETV
attr interpolationmode none
attr title "packet popped, vector(packetBytes)"
vector 310 scenario.client3.ppp[0].ppp.queue queueingTime:vector ETV
attr interpolationmode none
attr source queueingTime(packetPopped)
attr title "queueing times, vector"
attr unit s
vector 311 scenario.client3.ppp[0].ppp txPk:vector(packetBytes) ETV
attr interpolationmode none
attr source packetSentToLower
attr title "packets transmitted, vector(packetBytes)"
vector 312 scenario.client0.ppp[2].ppp rxPkOk:vector(packetBytes) ETV
attr interpolationmode none
attr source rxPkOk
attr title "packets received OK, vector(packetBytes)"
vector 313 scenario.client0.ppp[2].ppp passedUpPk:vector(packetBytes) ETV
attr interpolationmode none
attr source packetSentToUpper
attr title "packets passed to higher layer, vector(packetBytes)"
vector 314 scenario.client0.tcp.conn-42 rcvAdv:vector ETV
attr interpolationmode sample-hold
vector 315 scenario.client0.tcp.conn-42 sndWnd:vector ETV
attr interpolationmode sample-hold
vector 316 scenario.client0.tcp.conn-42 tcpRcvQueueBytes:vector ETV
attr interpolationmode sample-hold
vector 317 scenario.client0.tcp.conn-42 rcvWnd:vector ETV
attr interpolationmode sample-hold
vector 318 scenario.client0.tcp.conn-42 sndAck:vector ETV
attr interpolationmode sample-hold
vector 319 scenario.client0.ppp[2].ppp rcvdPkFromHl:vector(packetBytes) ETV
attr interpolationmode none
attr source packetReceivedFromUpper
attr title "packets received from higher layer, vector(packetBytes)"
vector 320 scenario.client0.ppp[2].ppp.queue packetPushed:vector(packetBytes) ETV
attr interpolationmode none
attr title "packet pushed, vector(packetBytes)"
vector 321 scenario.client0.ppp[2].ppp.queue queueLength:vector ETV
attr interpolationmode sample-hold
attr source "count(packetPushed) - count(packetPopped) - count(packetRemoved) - count(packetDropped)"
attr title "queue length, vector"
vector 322 scenario.client0.ppp[2].ppp.queue packetPopped:vector(packetBytes) ETV
attr interpolationmode none
attr title "packet popped, vector(packetBytes)"
vector 323 scenario.client0.ppp[2].ppp.queue queueingTime:vector ETV
attr interpolationmode none
attr source queueingTime(packetPopped)
attr title "queueing times, vector"
attr unit s
vector 324 scenario.client0.ppp[2].ppp txPk:vector(packetBytes) ETV
attr interpolationmode none
attr source packetSentToLower
attr title "packets transmitted, vector(packetBytes)"
vector 325 scenario.client3.ppp[0].ppp rxPkOk:vector(packetBytes) ETV
attr interpolationmode none
attr source rxPkOk
attr title "packets received OK, vector(packetBytes)"
vector 326 scenario.client3.ppp[0].ppp passedUpPk:vector(packetBytes) ETV
attr interpolationmode none
attr source packetSentToUpper
attr title "packets passed to higher layer, vector(packetBytes)"
vector 327 scenario.client3.tcp.conn-41 rcvSeq:vector ETV
attr interpolationmode sample-hold
vector 328 scenario.client3.tcp.conn-41 rcvAck:vector ETV
attr interpolationmode sample-hold
vector 329 scenario.client3.tcp.conn-41 sndWnd:vector ETV
attr interpolationmode sample-hold
vector 330 scenario.client3.tcp.conn-41 unacked:vector ETV
attr interpolationmode sample-hold
vector 331 scenario.client0.tcp.conn-42 rcvSeq:vector ETV
attr interpolationmode sample-hold
vector 332 scenario.client0.tcp.conn-42 rcvAck:vector ETV
attr interpolationmode sample-hold
vector 333 scenario.client0.tcp.conn-42 unacked:vector ETV
attr interpolationmode sample-hold
vector 334 scenario.client0.tcp.conn-42 cwnd:vector ETV
attr interpolationmode sample-hold
vector 335 scenario.client0.tcp.conn-42 ssthresh:vector ETV
attr interpolationmode sample-hold
vector 336 scenario.client0.tcp.conn-42 dupAcks:vector ETV
attr interpolationmode sample-hold
vector 337 scenario.client3.tcp.conn-41 rtt:vector ETV
attr interpolationmode sample-hold
vector 338 scenario.client3.tcp.conn-41 srtt:vector ETV
attr interpolationmode sample-hold
vector 339 scenario.client3.tcp.conn-41 rttvar:vector ETV
attr interpolationmode sample-hold
vector 340 scenario.client3.tcp.conn-41 rto:vector ETV
attr interpolationmode sample-hold
vector 341 scenario.client3.tcp.conn-41 cwnd:vector ETV
attr interpolationmode sample-hold
vector 342 scenario.client3.tcp.conn-41 ssthresh:vector ETV
attr interpolationmode sample-hold
vector 343 scenario.client3.tcp.conn-41 dupAcks:vector ETV
attr interpolationmode sample-hold
vector 344 scenario.client0.tcp.conn-43 tcpRcvQueueBytes:vector ETV
attr interpolationmode sample-hold
vector 345 scenario.client0.tcp.conn-43 rcvAdv:vector ETV
attr interpolationmode sample-hold
vector 346 scenario.client0.tcp.conn-43 rcvWnd:vector ETV
attr interpolationmode sample-hold
vector 347 scenario.client0.tcp.conn-43 sndAck:vector ETV
attr interpolationmode sample-hold
vector 348 scenario.client0.ppp[1].ppp rcvdPkFromHl:vector(packetBytes) ETV
attr interpolationmode none
attr source packetReceivedFromUpper
attr title "packets received from higher layer, vector(packetBytes)"
vector 349 scenario.client0.ppp[1].ppp.queue packetPushed:vector(packetBytes) ETV
attr interpolationmode none
attr title "packet pushed, vector(packetBytes)"
vector 350 scenario.client0.ppp[1].ppp.queue queueLength:vector ETV
attr interpolationmode sample-hold
attr source "count(packetPushed) - count(packetPopped) - count(packetRemoved) - count(packetDropped)"
attr title "queue length, vector"
vector 351 scenario.client0.ppp[1].ppp.queue packetPopped:vector(packetBytes) ETV
attr interpolationmode none
attr title "packet popped, vector(packetBytes)"
vector 352 scenario.client0.ppp[1].ppp.queue queueingTime:vector ETV
attr interpolationmode none
attr source queueingTime(packetPopped)
attr title "queueing times, vector"
attr unit s
vector 353 scenario.client0.ppp[1].ppp txPk:vector(packetBytes) ETV
attr interpolationmode none
attr source packetSentToLower
attr title "packets transmitted, vector(packetBytes)"
vector 354 scenario.client2.ppp[0].ppp rxPkOk:vector(packetBytes) ETV
attr interpolationmode none
attr source rxPkOk
attr title "packets received OK, vector(packetBytes)"
vector 355 scenario.client2.ppp[0].ppp passedUpPk:vector(packetBytes) ETV
attr interpolationmode none
attr source packetSentToUpper
attr title "packets passed to higher layer, vector(packetBytes)"
vector 356 scenario.client2.tcp.conn-44 rcvAdv:vector ETV
attr interpolationmode sample-hold
vector 357 scenario.client2.tcp.conn-44 sndWnd:vector ETV
attr interpolationmode sample-hold
vector 358 scenario.client2.tcp.conn-44 tcpRcvQueueBytes:vector ETV
attr interpolationmode sample-hold
vector 359 scenario.client2.tcp.conn-44 rcvWnd:vector ETV
attr interpolationmode sample-hold
vector 360 scenario.client2.tcp.conn-44 sndAck:vector ETV
attr interpolationmode sample-hold
vector 361 scenario.client2.ppp[0].ppp rcvdPkFromHl:vector(packetBytes) ETV
attr interpolationmode none
attr source packetReceivedFromUpper
attr title "packets received from higher layer, vector(packetBytes)"
vector 362 scenario.client2.ppp[0].ppp.queue packetPushed:vector(packetBytes) ETV
attr interpolationmode none
attr title "packet pushed, vector(packetBytes)"
vector 363 scenario.client2.ppp[0].ppp.queue queueLength:vector ETV
attr interpolationmode sample-hold
attr source "count(packetPushed) - count(packetPopped) - count(packetRemoved) - count(packetDropped)"
attr title "queue length, vector"
vector 364 scenario.client2.ppp[0].ppp.queue packetPopped:vector(packetBytes) ETV
attr interpolationmode none
attr title "packet popped, vector(packetBytes)"
vector 365 scenario.client2.ppp[0].ppp.queue queueingTime:vector ETV
attr interpolationmode none
attr source queueingTime(packetPopped)
attr title "queueing times, vector"
attr unit s
vector 366 scenario.client2.ppp[0].ppp txPk:vector(packetBytes) ETV
attr interpolationmode none
attr source packetSentToLower
attr title "packets transmitted, vector(packetBytes)"
vector 367 scenario.client0.ppp[1].ppp rxPkOk:vector(packetBytes) ETV
attr interpolationmode none
attr source rxPkOk
attr title "packets received OK, vector(packetBytes)"
vector 368 scenario.client0.ppp[1].ppp passedUpPk:vector(packetBytes) ETV
attr interpolationmode none
attr source packetSentToUpper
attr title "packets passed to higher layer, vector(packetBytes)"
vector 369 scenario.client0.tcp.conn-43 rcvSeq:vector ETV
attr interpolationmode sample-hold
vector 370 scenario.client0.tcp.conn-43 rcvAck:vector ETV
attr interpolationmode sample-hold
vector 371 scenario.client0.tcp.conn-43 sndWnd:vector ETV
attr interpolationmode sample-hold
vector 372 scenario.client0.tcp.conn-43 unacked:vector ETV
attr interpolationmode sample-hold
vector 373 scenario.client2.tcp.conn-44 rcvSeq:vector ETV
attr interpolationmode sample-hold
vector 374 scenario.client2.tcp.conn-44 rcvAck:vector ETV
attr interpolationmode sample-hold
vector 375 scenario.client2.tcp.conn-44 unacked:vector ETV
attr interpolationmode sample-hold
vector 376 scenario.client2.tcp.conn-44 cwnd:vector ETV
attr interpolationmode sample-hold
vector 377 scenario.client2.tcp.conn-44 ssthresh:vector ETV
attr interpolationmode sample-hold
vector 378 scenario.client2.tcp.conn-44 dupAcks:vector ETV
attr interpolationmode sample-hold
vector 379 scenario.client0.tcp.conn-43 rtt:vector ETV
attr interpolationmode sample-hold
vector 380 scenario.client0.tcp.conn-43 srtt:vector ETV
attr interpolationmode sample-hold
vector 381 scenario.client0.tcp.conn-43 rttvar:vector ETV
attr interpolationmode sample-hold
vector 382 scenario.client0.tcp.conn-43 rto:vector ETV
attr interpolationmode sample-hold
vector 383 scenario.client0.tcp.conn-43 cwnd:vector ETV
attr interpolationmode sample-hold
vector 384 scenario.client0.tcp.conn-43 ssthresh:vector ETV
attr interpolationmode sample-hold
vector 385 scenario.client0.tcp.conn-43 dupAcks:vector ETV
attr interpolationmode sample-hold
vector 386 scenario.client2.tcp.conn-45 tcpRcvQueueBytes:vector ETV
attr interpolationmode sample-hold
vector 387 scenario.client2.tcp.conn-45 rcvAdv:vector ETV
attr interpolationmode sample-hold
vector 388 scenario.client2.tcp.conn-45 rcvWnd:vector ETV
attr interpolationmode sample-hold
vector 389 scenario.client2.tcp.conn-45 sndAck:vector ETV
attr interpolationmode sample-hold
vector 390 scenario.client2.ppp[2].ppp rcvdPkFromHl:vector(packetBytes) ETV
attr interpolationmode none
attr source packetReceivedFromUpper
attr title "packets received from higher layer, vector(packetBytes)"
vector 391 scenario.client2.ppp[2].ppp.queue packetPushed:vector(packetBytes) ETV
attr interpolationmode none
attr title "packet pushed, vector(packetBytes)"
vector 392 scenario.client2.ppp[2].ppp.queue queueLength:vector ETV
attr interpolationmode sample-hold
attr source "count(packetPushed) - count(packetPopped) - count(packetRemoved) - count(packetDropped)"
attr title "queue length, vector"
vector 393 scenario.client2.ppp[2].ppp.queue packetPopped:vector(packetBytes) ETV
attr interpolationmode none
attr title "packet popped, vector(packetBytes)"
vector 394 scenario.client2.ppp[2].ppp.queue queueingTime:vector ETV
attr interpolationmode none
attr source queueingTime(packetPopped)
attr title "queueing times, vector"
attr unit s
vector 395 scenario.client2.ppp[2].ppp txPk:vector(packetBytes) ETV
attr interpolationmode none
attr source packetSentToLower
attr title "packets transmitted, vector(packetBytes)"
vector 396 scenario.client3.ppp[2].ppp rxPkOk:vector(packetBytes) ETV
attr interpolationmode none
attr source rxPkOk
attr title "packets received OK, vector(packetBytes)"
vector 397 scenario.client3.ppp[2].ppp passedUpPk:vector(packetBytes) ETV
attr interpolationmode none
attr source packetSentToUpper
attr title "packets passed to higher layer, vector(packetBytes)"
vector 398 scenario.client3.tcp.conn-46 rcvAdv:vector ETV
attr interpolationmode sample-hold
vector 399 scenario.client3.tcp.conn-46 sndWnd:vector ETV
attr interpolationmode sample-hold
vector 400 scenario.client3.tcp.conn-46 tcpRcvQueueBytes:vector ETV
attr interpolationmode sample-hold
vector 401 scenario.client3.tcp.conn-46 rcvWnd:vector ETV
attr interpolationmode sample-hold
vector 402 scenario.client3.tcp.conn-46 sndAck:vector ETV
attr interpolationmode sample-hold
vector 403 scenario.client3.ppp[2].ppp rcvdPkFromHl:vector(packetBytes) ETV
attr interpolationmode none
attr source packetReceivedFromUpper
attr title "packets received from higher layer, vector(packetBytes)"
vector 404 scenario.client3.ppp[2].ppp.queue packetPushed:vector(packetBytes) ETV
attr interpolationmode none
attr title "packet pushed, vector(packetBytes)"
vector 405 scenario.client3.ppp[2].ppp.queue queueLength:vector ETV
attr interpolationmode sample-hold
attr source "count(packetPushed) - count(packetPopped) - count(packetRemoved) - count(packetDropped)"
attr title "queue length, vector"
vector 406 scenario.client3.ppp[2].ppp.queue packetPopped:vector(packetBytes) ETV
attr interpolationmode none
attr title "packet popped, vector(packetBytes)"
vector 407 scenario.client3.ppp[2].ppp.queue queueingTime:vector ETV
attr interpolationmode none
attr source queueingTime(packetPopped)
attr title "queueing times, vector"
attr unit s
vector 408 scenario.client3.ppp[2].ppp txPk:vector(packetBytes) ETV
attr interpolationmode none
attr source packetSentToLower
attr title "packets transmitted, vector(packetBytes)"
vector 409 scenario.client2.ppp[2].ppp rxPkOk:vector(packetBytes) ETV
attr interpolationmode none
attr source rxPkOk
attr title "packets received OK, vector(packetBytes)"
vector 410 scenario.client2.ppp[2].ppp passedUpPk:vector(packetBytes) ETV
attr interpolationmode none
attr source packetSentToUpper
attr title "packets passed to higher layer, vector(packetBytes)"
vector 411 scenario.client2.tcp.conn-45 rcvSeq:vector ETV
attr interpolationmode sample-hold
vector 412 scenario.client2.tcp.conn-45 rcvAck:vector ETV
attr interpolationmode sample-hold
vector 413 scenario.client2.tcp.conn-45 sndWnd:vector ETV
attr interpolationmode sample-hold
vector 414 scenario.client2.tcp.conn-45 unacked:vector ETV
attr interpolationmode sample-hold
vector 415 scenario.client3.tcp.conn-46 rcvSeq:vector ETV
attr interpolationmode sample-hold
vector 416 scenario.client3.tcp.conn-46 rcvAck:vector ETV
attr interpolationmode sample-hold
vector 417 scenario.client3.tcp.conn-46 unacked:vector ETV
attr interpolationmode sample-hold
vector 418 scenario.client3.tcp.conn-46 cwnd:vector ETV
attr interpolationmode sample-hold
vector 419 scenario.client3.tcp.conn-46 ssthresh:vector ETV
attr interpolationmode sample-hold
vector 420 scenario.client3.tcp.conn-46 dupAcks:vector ETV
attr interpolationmode sample-hold
vector 421 scenario.client2.tcp.conn-45 rtt:vector ETV
attr interpolationmode sample-hold
vector 422 scenario.client2.tcp.conn-45 srtt:vector ETV
attr interpolationmode sample-hold
vector 423 scenario.client2.tcp.conn-45 rttvar:vector ETV
attr interpolationmode sample-hold
vector 424 scenario.client2.tcp.conn-45 rto:vector ETV
attr interpolationmode sample-hold
vector 425 scenario.client2.tcp.conn-45 cwnd:vector ETV
attr interpolationmode sample-hold
vector 426 scenario.client2.tcp.conn-45 ssthresh:vector ETV
attr interpolationmode sample-hold
vector 427 scenario.client2.tcp.conn-45 dupAcks:vector ETV
attr interpolationmode sample-hold
vector 428 scenario.client4.tcp.conn-47 tcpRcvQueueBytes:vector ETV
attr interpolationmode sample-hold
vector 429 scenario.client4.tcp.conn-47 rcvAdv:vector ETV
attr interpolationmode sample-hold
vector 430 scenario.client4.tcp.conn-47 rcvWnd:vector ETV
attr interpolationmode sample-hold
vector 431 scenario.client4.tcp.conn-47 sndAck:vector ETV
attr interpolationmode sample-hold
vector 432 scenario.client4.ppp[2].ppp rcvdPkFromHl:vector(packetBytes) ETV
attr interpolationmode none
attr source packetReceivedFromUpper
attr title "packets received from higher layer, vector(packetBytes)"
vector 433 scenario.client4.ppp[2].ppp.queue packetPushed:vector(packetBytes) ETV
attr interpolationmode none
attr title "packet pushed, vector(packetBytes)"
vector 434 scenario.client4.ppp[2].ppp.queue queueLength:vector ETV
attr interpolationmode sample-hold
attr source "count(packetPushed) - count(packetPopped) - count(packetRemoved) - count(packetDropped)"
attr title "queue length, vector"
vector 435 scenario.client4.ppp[2].ppp.queue packetPopped:vector(packetBytes) ETV
attr interpolationmode none
attr title "packet popped, vector(packetBytes)"
vector 436 scenario.client4.ppp[2].ppp.queue queueingTime:vector ETV
attr interpolationmode none
attr source queueingTime(packetPopped)
attr title "queueing times, vector"
attr unit s
vector 437 scenario.client4.ppp[2].ppp txPk:vector(packetBytes) ETV
attr interpolationmode none
attr source packetSentToLower
attr title "packets transmitted, vector(packetBytes)"
vector 438 scenario.client3.tcp.conn-48 tcpRcvQueueBytes:vector ETV
attr interpolationmode sample-hold
vector 439 scenario.client3.tcp.conn-48 rcvAdv:vector ETV
attr interpolationmode sample-hold
vector 440 scenario.client3.tcp.conn-48 rcvWnd:vector ETV
attr interpolationmode sample-hold
vector 441 scenario.client3.tcp.conn-48 sndAck:vector ETV
attr interpolationmode sample-hold
vector 442 scenario.client2.ppp[3].ppp rxPkOk:vector(packetBytes) ETV
attr interpolationmode none
attr source rxPkOk
attr title "packets received OK, vector(packetBytes)"
vector 443 scenario.client2.ppp[3].ppp passedUpPk:vector(packetBytes) ETV
attr interpolationmode none
attr source packetSentToUpper
attr title "packets passed to higher layer, vector(packetBytes)"
vector 444 scenario.client2.tcp.conn-49 rcvAdv:vector ETV
attr interpolationmode sample-hold
vector 445 scenario.client2.tcp.conn-49 sndWnd:vector ETV
attr interpolationmode sample-hold
vector 446 scenario.client2.tcp.conn-49 tcpRcvQueueBytes:vector ETV
attr interpolationmode sample-hold
vector 447 scenario.client2.tcp.conn-49 rcvWnd:vector ETV
attr interpolationmode sample-hold
vector 448 scenario.client2.tcp.conn-49 sndAck:vector ETV
attr interpolationmode sample-hold
vector 449 scenario.client2.ppp[3].ppp rcvdPkFromHl:vector(packetBytes) ETV
attr interpolationmode none
attr source packetReceivedFromUpper
attr title "packets received from higher layer, vector(packetBytes)"
vector 450 scenario.client2.ppp[3].ppp.queue packetPushed:vector(packetBytes) ETV
attr interpolationmode none
attr title "packet pushed, vector(packetBytes)"
vector 451 scenario.client2.ppp[3].ppp.queue queueLength:vector ETV
attr interpolationmode sample-hold
attr source "count(packetPushed) - count(packetPopped) - count(packetRemoved) - count(packetDropped)"
attr title "queue length, vector"
vector 452 scenario.client2.ppp[3].ppp.queue packetPopped:vector(packetBytes) ETV
attr interpolationmode none
attr title "packet popped, vector(packetBytes)"
vector 453 scenario.client2.ppp[3].ppp.queue queueingTime:vector ETV
attr interpolationmode none
attr source queueingTime(packetPopped)
attr title "queueing times, vector"
attr unit s
vector 454 scenario.client2.ppp[3].ppp txPk:vector(packetBytes) ETV
attr interpolationmode none
attr source packetSentToLower
attr title "packets transmitted, vector(packetBytes)"
vector 455 scenario.client2.tcp.conn-50 rcvAdv:vector ETV
attr interpolationmode sample-hold
vector 456 scenario.client2.tcp.conn-50 sndWnd:vector ETV
attr interpolationmode sample-hold
vector 457 scenario.client2.tcp.conn-50 tcpRcvQueueBytes:vector ETV
attr interpolationmode sample-hold
vector 458 scenario.client2.tcp.conn-50 rcvWnd:vector ETV
attr interpolationmode sample-hold
vector 459 scenario.client2.tcp.conn-50 sndAck:vector ETV
attr interpolationmode sample-hold
vector 460 scenario.client4.ppp[2].ppp rxPkOk:vector(packetBytes) ETV
attr interpolationmode none
attr source rxPkOk
attr title "packets received OK, vector(packetBytes)"
vector 461 scenario.client4.ppp[2].ppp passedUpPk:vector(packetBytes) ETV
attr interpolationmode none
attr source packetSentToUpper
attr title "packets passed to higher layer, vector(packetBytes)"
vector 462 scenario.client4.tcp.conn-47 rcvSeq:vector ETV
attr interpolationmode sample-hold
vector 463 scenario.client4.tcp.conn-47 rcvAck:vector ETV
attr interpolationmode sample-hold
vector 464 scenario.client4.tcp.conn-47 sndWnd:vector ETV
attr interpolationmode sample-hold
vector 465 scenario.client4.tcp.conn-47 unacked:vector ETV
attr interpolationmode sample-hold
vector 466 scenario.client3.tcp.conn-48 rcvSeq:vector ETV
attr interpolationmode sample-hold
vector 467 scenario.client3.tcp.conn-48 rcvAck:vector ETV
attr interpolationmode sample-hold
vector 468 scenario.client3.tcp.conn-48 sndWnd:vector ETV
attr interpolationmode sample-hold
vector 469 scenario.client3.tcp.conn-48 unacked:vector ETV
attr interpolationmode sample-hold
vector 470 scenario.client2.tcp.conn-49 rcvSeq:vector ETV
attr interpolationmode sample-hold
vector 471 scenario.client2.tcp.conn-49 rcvAck:vector ETV
attr interpolationmode sample-hold
vector 472 scenario.client2.tcp.conn-49 unacked:vector ETV
attr interpolationmode sample-hold
vector 473 scenario.client2.tcp.conn-49 cwnd:vector ETV
attr interpolationmode sample-hold
vector 474 scenario.client2.tcp.conn-49 ssthresh:vector ETV
attr interpolationmode sample-hold
vector 475 scenario.client2.tcp.conn-49 dupAcks:vector ETV
attr interpolationmode sample-hold
vector 476 scenario.client2.tcp.conn-50 rcvSeq:vector ETV
attr interpolationmode sample-hold
vector 477 scenario.client2.tcp.conn-50 rcvAck:vector ETV
attr interpolationmode sample-hold
vector 478 scenario.client2.tcp.conn-50 unacked:vector ETV
attr interpolationmode sample-hold
vector 479 scenario.client2.tcp.conn-50 cwnd:vector ETV
attr interpolationmode sample-hold
vector 480 scenario.client2.tcp.conn-50 ssthresh:vector ETV
attr interpolationmode sample-hold
vector 481 scenario.client2.tcp.conn-50 dupAcks:vector ETV
attr interpolationmode sample-hold
vector 482 scenario.client4.tcp.conn-47 rtt:vector ETV
attr interpolationmode sample-hold
vector 483 scenario.client4.tcp.conn-47 srtt:vector ETV
attr interpolationmode sample-hold
vector 484 scenario.client4.tcp.conn-47 rttvar:vector ETV
attr interpolationmode sample-hold
vector 485 scenario.client4.tcp.conn-47 rto:vector ETV
attr interpolationmode sample-hold
vector 486 scenario.client4.tcp.conn-47 cwnd:vector ETV
attr interpolationmode sample-hold
vector 487 scenario.client4.tcp.conn-47 ssthresh:vector ETV
attr interpolationmode sample-hold
vector 488 scenario.client4.tcp.conn-47 dupAcks:vector ETV
attr interpolationmode sample-hold
vector 489 scenario.client3.tcp.conn-48 rtt:vector ETV
attr interpolationmode sample-hold
vector 490 scenario.client3.tcp.conn-48 srtt:vector ETV
attr interpolationmode sample-hold
vector 491 scenario.client3.tcp.conn-48 rttvar:vector ETV
attr interpolationmode sample-hold
vector 492 scenario.client3.tcp.conn-48 rto:vector ETV
attr interpolationmode sample-hold
vector 493 scenario.client3.tcp.conn-48 cwnd:vector ETV
attr interpolationmode sample-hold
vector 494 scenario.client3.tcp.conn-48 ssthresh:vector ETV
attr interpolationmode sample-hold
vector 495 scenario.client3.tcp.conn-48 dupAcks:vector ETV
attr interpolationmode sample-hold
vector 496 scenario.client4.tcp.conn-51 tcpRcvQueueBytes:vector ETV
attr interpolationmode sample-hold
vector 497 scenario.client4.tcp.conn-51 rcvAdv:vector ETV
attr interpolationmode sample-hold
vector 498 scenario.client4.tcp.conn-51 rcvWnd:vector ETV
attr interpolationmode sample-hold
vector 499 scenario.client4.tcp.conn-51 sndAck:vector ETV
attr interpolationmode sample-hold
vector 500 scenario.client4.ppp[3].ppp rcvdPkFromHl:vector(packetBytes) ETV
attr interpolationmode none
attr source packetReceivedFromUpper
attr title "packets received from higher layer, vector(packetBytes)"
vector 501 scenario.client4.ppp[3].ppp.queue packetPushed:vector(packetBytes) ETV
attr interpolationmode none
attr title "packet pushed, vector(packetBytes)"
vector 502 scenario.client4.ppp[3].ppp.queue queueLength:vector ETV
attr interpolationmode sample-hold
attr source "count(packetPushed) - count(packetPopped) - count(packetRemoved) - count(packetDropped)"
attr title "queue length, vector"
vector 503 scenario.client4.ppp[3].ppp.queue packetPopped:vector(packetBytes) ETV
attr interpolationmode none
attr title "packet popped, vector(packetBytes)"
vector 504 scenario.client4.ppp[3].ppp.queue queueingTime:vector ETV
attr interpolationmode none
attr source queueingTime(packetPopped)
attr title "queueing times, vector"
attr unit s
vector 505 scenario.client4.ppp[3].ppp txPk:vector(packetBytes) ETV
attr interpolationmode none
attr source packetSentToLower
attr title "packets transmitted, vector(packetBytes)"
vector 506 scenario.client3.ppp[3].ppp rxPkOk:vector(packetBytes) ETV
attr interpolationmode none
attr source rxPkOk
attr title "packets received OK, vector(packetBytes)"
vector 507 scenario.client3.ppp[3].ppp passedUpPk:vector(packetBytes) ETV
attr interpolationmode none
attr source packetSentToUpper
attr title "packets passed to higher layer, vector(packetBytes)"
vector 508 scenario.client3.tcp.conn-52 rcvAdv:vector ETV
attr interpolationmode sample-hold
vector 509 scenario.client3.tcp.conn-52 sndWnd:vector ETV
attr interpolationmode sample-hold
vector 510 scenario.client3.tcp.conn-52 tcpRcvQueueBytes:vector ETV
attr interpolationmode sample-hold
vector 511 scenario.client3.tcp.conn-52 rcvWnd:vector ETV
attr interpolationmode sample-hold
vector 512 scenario.client3.tcp.conn-52 sndAck:vector ETV
attr interpolationmode sample-hold
vector 513 scenario.client3.ppp[3].ppp rcvdPkFromHl:vector(packetBytes) ETV
attr interpolationmode none
attr source packetReceivedFromUpper
attr title "packets received from higher layer, vector(packetBytes)"
vector 514 scenario.client3.ppp[3].ppp.queue packetPushed:vector(packetBytes) ETV
attr interpolationmode none
attr title "packet pushed, vector(packetBytes)"
vector 515 scenario.client3.ppp[3].ppp.queue queueLength:vector ETV
attr interpolationmode sample-hold
attr source "count(packetPushed) - count(packetPopped) - count(packetRemoved) - count(packetDropped)"
attr title "queue length, vector"
vector 516 scenario.client3.ppp[3].ppp.queue packetPopped:vector(packetBytes) ETV
attr interpolationmode none
attr title "packet popped, vector(packetBytes)"
vector 517 scenario.client3.ppp[3].ppp.queue queueingTime:vector ETV
attr interpolationmode none
attr source queueingTime(packetPopped)
attr title "queueing times, vector"
attr unit s
vector 518 scenario.client3.ppp[3].ppp txPk:vector(packetBytes) ETV
attr interpolationmode none
attr source packetSentToLower
attr title "packets transmitted, vector(packetBytes)"
vector 519 scenario.client4.ppp[3].ppp rxPkOk:vector(packetBytes) ETV
attr interpolationmode none
attr source rxPkOk
attr title "packets received OK, vector(packetBytes)"
vector 520 scenario.client4.ppp[3].ppp passedUpPk:vector(packetBytes) ETV
attr interpolationmode none
attr source packetSentToUpper
attr title "packets passed to higher layer, vector(packetBytes)"
vector 521 scenario.client4.tcp.conn-51 rcvSeq:vector ETV
attr interpolationmode sample-hold
vector 522 scenario.client4.tcp.conn-51 rcvAck:vector ETV
attr interpolationmode sample-hold
vector 523 scenario.client4.tcp.conn-51 sndWnd:vector ETV
attr interpolationmode sample-hold
vector 524 scenario.client4.tcp.conn-51 unacked:vector ETV
attr interpolationmode sample-hold
vector 525 scenario.client3.tcp.conn-52 rcvSeq:vector ETV
attr interpolationmode sample-hold
vector 526 scenario.client3.tcp.conn-52 rcvAck:vector ETV
attr interpolationmode sample-hold
vector 527 scenario.client3.tcp.conn-52 unacked:vector ETV
attr interpolationmode sample-hold
vector 528 scenario.client3.tcp.conn-52 cwnd:vector ETV
attr interpolationmode sample-hold
vector 529 scenario.client3.tcp.conn-52 ssthresh:vector ETV
attr interpolationmode sample-hold
vector 530 scenario.client3.tcp.conn-52 dupAcks:vector ETV
attr interpolationmode sample-hold
vector 531 scenario.client4.tcp.conn-51 rtt:vector ETV
attr interpolationmode sample-hold
vector 532 scenario.client4.tcp.conn-51 srtt:vector ETV
attr interpolationmode sample-hold
vector 533 scenario.client4.tcp.conn-51 rttvar:vector ETV
attr interpolationmode sample-hold
vector 534 scenario.client4.tcp.conn-51 rto:vector ETV
attr interpolationmode sample-hold
vector 535 scenario.client4.tcp.conn-51 cwnd:vector ETV
attr interpolationmode sample-hold
vector 536 scenario.client4.tcp.conn-51 ssthresh:vector ETV
attr interpolationmode sample-hold
vector 537 scenario.client4.tcp.conn-51 dupAcks:vector ETV
attr interpolationmode sample-hold
vector 538 scenario.client3.tcp.conn-53 tcpRcvQueueBytes:vector ETV
attr interpolationmode sample-hold
vector 539 scenario.client3.tcp.conn-53 rcvAdv:vector ETV
attr interpolationmode sample-hold
vector 540 scenario.client3.tcp.conn-53 rcvWnd:vector ETV
attr interpolationmode sample-hold
vector 541 scenario.client3.tcp.conn-53 sndAck:vector ETV
attr interpolationmode sample-hold
vector 542 scenario.client4.tcp.conn-54 rcvAdv:vector ETV
attr interpolationmode sample-hold
vector 543 scenario.client4.tcp.conn-54 sndWnd:vector ETV
attr interpolationmode sample-hold
vector 544 scenario.client4.tcp.conn-54 tcpRcvQueueBytes:vector ETV
attr interpolationmode sample-hold
vector 545 scenario.client4.tcp.conn-54 rcvWnd:vector ETV
attr interpolationmode sample-hold
vector 546 scenario.client4.tcp.conn-54 sndAck:vector ETV
attr interpolationmode sample-hold
vector 547 scenario.client3.tcp.conn-53 rcvSeq:vector ETV
attr interpolationmode sample-hold
vector 548 scenario.client3.tcp.conn-53 rcvAck:vector ETV
attr interpolationmode sample-hold
vector 549 scenario.client3.tcp.conn-53 sndWnd:vector ETV
attr interpolationmode sample-hold
vector 550 scenario.client3.tcp.conn-53 unacked:vector ETV
attr interpolationmode sample-hold
vector 551 scenario.client4.tcp.conn-54 rcvSeq:vector ETV
attr interpolationmode sample-hold
vector 552 scenario.client4.tcp.conn-54 rcvAck:vector ETV
attr interpolationmode sample-hold
vector 553 scenario.client4.tcp.conn-54 unacked:vector ETV
attr interpolationmode sample-hold
vector 554 scenario.client4.tcp.conn-54 cwnd:vector ETV
attr interpolationmode sample-hold
vector 555 scenario.client4.tcp.conn-54 ssthresh:vector ETV
attr interpolationmode sample-hold
vector 556 scenario.client4.tcp.conn-54 dupAcks:vector ETV
attr interpolationmode sample-hold
vector 557 scenario.client3.tcp.conn-53 rtt:vector ETV
attr interpolationmode sample-hold
vector 558 scenario.client3.tcp.conn-53 srtt:vector ETV
attr interpolationmode sample-hold
vector 559 scenario.client3.tcp.conn-53 rttvar:vector ETV
attr interpolationmode sample-hold
vector 560 scenario.client3.tcp.conn-53 rto:vector ETV
attr interpolationmode sample-hold
vector 561 scenario.client3.tcp.conn-53 cwnd:vector ETV
attr interpolationmode sample-hold
vector 562 scenario.client3.tcp.conn-53 ssthresh:vector ETV
attr interpolationmode sample-hold
vector 563 scenario.client3.tcp.conn-53 dupAcks:vector ETV
attr interpolationmode sample-hold
vector 564 scenario.client2.tcp.conn-55 tcpRcvQueueBytes:vector ETV
attr interpolationmode sample-hold
vector 565 scenario.client2.tcp.conn-55 rcvAdv:vector ETV
attr interpolationmode sample-hold
vector 566 scenario.client2.tcp.conn-55 rcvWnd:vector ETV
attr interpolationmode sample-hold
vector 567 scenario.client2.tcp.conn-55 sndAck:vector ETV
attr interpolationmode sample-hold
vector 568 scenario.client4.tcp.conn-56 rcvAdv:vector ETV
attr interpolationmode sample-hold
vector 569 scenario.client4.tcp.conn-56 sndWnd:vector ETV
attr interpolationmode sample-hold
vector 570 scenario.client4.tcp.conn-56 tcpRcvQueueBytes:vector ETV
attr interpolationmode sample-hold
vector 571 scenario.client4.tcp.conn-56 rcvWnd:vector ETV
attr interpolationmode sample-hold
vector 572 scenario.client4.tcp.conn-56 sndAck:vector ETV
attr interpolationmode sample-hold
vector 573 scenario.client2.tcp.conn-55 rcvSeq:vector ETV
attr interpolationmode sample-hold
vector 574 scenario.client2.tcp.conn-55 rcvAck:vector ETV
attr interpolationmode sample-hold
vector 575 scenario.client2.tcp.conn-55 sndWnd:vector ETV
attr interpolationmode sample-hold
vector 576 scenario.client2.tcp.conn-55 unacked:vector ETV
attr interpolationmode sample-hold
vector 577 scenario.client4.tcp.conn-56 rcvSeq:vector ETV
attr interpolationmode sample-hold
vector 578 scenario.client4.tcp.conn-56 rcvAck:vector ETV
attr interpolationmode sample-hold
vector 579 scenario.client4.tcp.conn-56 unacked:vector ETV
attr interpolationmode sample-hold
vector 580 scenario.client4.tcp.conn-56 cwnd:vector ETV
attr interpolationmode sample-hold
vector 581 scenario.client4.tcp.conn-56 ssthresh:vector ETV
attr interpolationmode sample-hold
vector 582 scenario.client4.tcp.conn-56 dupAcks:vector ETV
attr interpolationmode sample-hold
vector 583 scenario.client2.tcp.conn-55 rtt:vector ETV
attr interpolationmode sample-hold
vector 584 scenario.client2.tcp.conn-55 srtt:vector ETV
attr interpolationmode sample-hold
vector 585 scenario.client2.tcp.conn-55 rttvar:vector ETV
attr interpolationmode sample-hold
vector 586 scenario.client2.tcp.conn-55 rto:vector ETV
attr interpolationmode sample-hold
vector 587 scenario.client2.tcp.conn-55 cwnd:vector ETV
attr interpolationmode sample-hold
vector 588 scenario.client2.tcp.conn-55 ssthresh:vector ETV
attr interpolationmode sample-hold
vector 589 scenario.client2.tcp.conn-55 dupAcks:vector ETV
attr interpolationmode sample-hold
vector 590 scenario.client2.tcp.conn-57 tcpRcvQueueBytes:vector ETV
attr interpolationmode sample-hold
vector 591 scenario.client2.tcp.conn-57 rcvAdv:vector ETV
attr interpolationmode sample-hold
vector 592 scenario.client2.tcp.conn-57 rcvWnd:vector ETV
attr interpolationmode sample-hold
vector 593 scenario.client2.tcp.conn-57 sndAck:vector ETV
attr interpolationmode sample-hold
vector 594 scenario.client0.tcp.conn-58 rcvAdv:vector ETV
attr interpolationmode sample-hold
vector 595 scenario.client0.tcp.conn-58 sndWnd:vector ETV
attr interpolationmode sample-hold
vector 596 scenario.client0.tcp.conn-58 tcpRcvQueueBytes:vector ETV
attr interpolationmode sample-hold
vector 597 scenario.client0.tcp.conn-58 rcvWnd:vector ETV
attr interpolationmode sample-hold
vector 598 scenario.client0.tcp.conn-58 sndAck:vector ETV
attr interpolationmode sample-hold
vector 599 scenario.client2.tcp.conn-57 rcvSeq:vector ETV
attr interpolationmode sample-hold
vector 600 scenario.client2.tcp.conn-57 rcvAck:vector ETV
attr interpolationmode sample-hold
vector 601 scenario.client2.tcp.conn-57 sndWnd:vector ETV
attr interpolationmode sample-hold
vector 602 scenario.client2.tcp.conn-57 unacked:vector ETV
attr interpolationmode sample-hold
vector 603 scenario.client0.tcp.conn-58 rcvSeq:vector ETV
attr interpolationmode sample-hold
vector 604 scenario.client0.tcp.conn-58 rcvAck:vector ETV
attr interpolationmode sample-hold
vector 605 scenario.client0.tcp.conn-58 unacked:vector ETV
attr interpolationmode sample-hold
vector 606 scenario.client0.tcp.conn-58 cwnd:vector ETV
attr interpolationmode sample-hold
vector 607 scenario.client0.tcp.conn-58 ssthresh:vector ETV
attr interpolationmode sample-hold
vector 608 scenario.client0.tcp.conn-58 dupAcks:vector ETV
attr interpolationmode sample-hold
vector 609 scenario.client2.tcp.conn-57 rtt:vector ETV
attr interpolationmode sample-hold
vector 610 scenario.client2.tcp.conn-57 srtt:vector ETV
attr interpolationmode sample-hold
vector 611 scenario.client2.tcp.conn-57 rttvar:vector ETV
attr interpolationmode sample-hold
vector 612 scenario.client2.tcp.conn-57 rto:vector ETV
attr interpolationmode sample-hold
vector 613 scenario.client2.tcp.conn-57 cwnd:vector ETV
attr interpolationmode sample-hold
vector 614 scenario.client2.tcp.conn-57 ssthresh:vector ETV
attr interpolationmode sample-hold
vector 615 scenario.client2.tcp.conn-57 dupAcks:vector ETV
attr interpolationmode sample-hold
vector 616 scenario.client0.tcp.conn-59 tcpRcvQueueBytes:vector ETV
attr interpolationmode sample-hold
vector 617 scenario.client0.tcp.conn-59 rcvAdv:vector ETV
attr interpolationmode sample-hold
vector 618 scenario.client0.tcp.conn-59 rcvWnd:vector ETV
attr interpolationmode sample-hold
vector 619 scenario.client0.tcp.conn-59 sndAck:vector ETV
attr interpolationmode sample-hold
vector 620 scenario.client0.ppp[3].ppp rcvdPkFromHl:vector(packetBytes) ETV
attr interpolationmode none
attr source packetReceivedFromUpper
attr title "packets received from higher layer, vector(packetBytes)"
vector 621 scenario.client0.ppp[3].ppp.queue packetPushed:vector(packetBytes) ETV
attr interpolationmode none
attr title "packet pushed, vector(packetBytes)"
vector 622 scenario.client0.ppp[3].ppp.queue queueLength:vector ETV
attr interpolationmode sample-hold
attr source "count(packetPushed) - count(packetPopped) - count(packetRemoved) - count(packetDropped)"
attr title "queue length, vector"
vector 623 scenario.client0.ppp[3].ppp.queue packetPopped:vector(packetBytes) ETV
attr interpolationmode none
attr title "packet popped, vector(packetBytes)"
vector 624 scenario.client0.ppp[3].ppp.queue queueingTime:vector ETV
attr interpolationmode none
attr source queueingTime(packetPopped)
attr title "queueing times, vector"
attr unit s
vector 625 scenario.client0.ppp[3].ppp txPk:vector(packetBytes) ETV
attr interpolationmode none
attr source packetSentToLower
attr title "packets transmitted, vector(packetBytes)"
vector 626 scenario.client4.ppp[0].ppp rxPkOk:vector(packetBytes) ETV
attr interpolationmode none
attr source rxPkOk
attr title "packets received OK, vector(packetBytes)"
vector 627 scenario.client4.ppp[0].ppp passedUpPk:vector(packetBytes) ETV
attr interpolationmode none
attr source packetSentToUpper
attr title "packets passed to higher layer, vector(packetBytes)"
vector 628 scenario.client4.tcp.conn-60 rcvAdv:vector ETV
attr interpolationmode sample-hold
vector 629 scenario.client4.tcp.conn-60 sndWnd:vector ETV
attr interpolationmode sample-hold
vector 630 scenario.client4.tcp.conn-60 tcpRcvQueueBytes:vector ETV
attr interpolationmode sample-hold
vector 631 scenario.client4.tcp.conn-60 rcvWnd:vector ETV
attr interpolationmode sample-hold
vector 632 scenario.client4.tcp.conn-60 sndAck:vector ETV
attr interpolationmode sample-hold
vector 633 scenario.client4.ppp[0].ppp rcvdPkFromHl:vector(packetBytes) ETV
attr interpolationmode none
attr source packetReceivedFromUpper
attr title "packets received from higher layer, vector(packetBytes)"
vector 634 scenario.client4.ppp[0].ppp.queue packetPushed:vector(packetBytes) ETV
attr interpolationmode none
attr title "packet pushed, vector(packetBytes)"
vector 635 scenario.client4.ppp[0].ppp.queue queueLength:vector ETV
attr interpolationmode sample-hold
attr source "count(packetPushed) - count(packetPopped) - count(packetRemoved) - count(packetDropped)"
attr title "queue length, vector"
vector 636 scenario.client4.ppp[0].ppp.queue packetPopped:vector(packetBytes) ETV
attr interpolationmode none
attr title "packet popped, vector(packetBytes)"
vector 637 scenario.client4.ppp[0].ppp.queue queueingTime:vector ETV
attr interpolationmode none
attr source queueingTime(packetPopped)
attr title "queueing times, vector"
attr unit s
vector 638 scenario.client4.ppp[0].ppp txPk:vector(packetBytes) ETV
attr interpolationmode none
attr source packetSentToLower
attr title "packets transmitted, vector(packetBytes)"
vector 639 scenario.client0.ppp[3].ppp rxPkOk:vector(packetBytes) ETV
attr interpolationmode none
attr source rxPkOk
attr title "packets received OK, vector(packetBytes)"
vector 640 scenario.client0.ppp[3].ppp passedUpPk:vector(packetBytes) ETV
attr interpolationmode none
attr source packetSentToUpper
attr title "packets passed to higher layer, vector(packetBytes)"
vector 641 scenario.client0.tcp.conn-59 rcvSeq:vector ETV
attr interpolationmode sample-hold
vector 642 scenario.client0.tcp.conn-59 rcvAck:vector ETV
attr interpolationmode sample-hold
vector 643 scenario.client0.tcp.conn-59 sndWnd:vector ETV
attr interpolationmode sample-hold
vector 644 scenario.client0.tcp.conn-59 unacked:vector ETV
attr interpolationmode sample-hold
vector 645 scenario.client4.tcp.conn-60 rcvSeq:vector ETV
attr interpolationmode sample-hold
vector 646 scenario.client4.tcp.conn-60 rcvAck:vector ETV
attr interpolationmode sample-hold
vector 647 scenario.client4.tcp.conn-60 unacked:vector ETV
attr interpolationmode sample-hold
vector 648 scenario.client4.tcp.conn-60 cwnd:vector ETV
attr interpolationmode sample-hold
vector 649 scenario.client4.tcp.conn-60 ssthresh:vector ETV
attr interpolationmode sample-hold
vector 650 scenario.client4.tcp.conn-60 dupAcks:vector ETV
attr interpolationmode sample-hold
vector 651 scenario.client0.tcp.conn-59 rtt:vector ETV
attr interpolationmode sample-hold
vector 652 scenario.client0.tcp.conn-59 srtt:vector ETV
attr interpolationmode sample-hold
vector 653 scenario.client0.tcp.conn-59 rttvar:vector ETV
attr interpolationmode sample-hold
vector 654 scenario.client0.tcp.conn-59 rto:vector ETV
attr interpolationmode sample-hold
vector 655 scenario.client0.tcp.conn-59 cwnd:vector ETV
attr interpolationmode sample-hold
vector 656 scenario.client0.tcp.conn-59 ssthresh:vector ETV
attr interpolationmode sample-hold
vector 657 scenario.client0.tcp.conn-59 dupAcks:vector ETV
attr interpolationmode sample-hold
vector 658 scenario.client4.tcp.conn-61 tcpRcvQueueBytes:vector ETV
attr interpolationmode sample-hold
vector 659 scenario.client4.tcp.conn-61 rcvAdv:vector ETV
attr interpolationmode sample-hold
[...]
642	894	3.885901517137	885087
642	1385	4.16355091635	885088
642	1516	4.256572370006	885089
642	2118	12.364441966613	885090
642	2358	13.344511306376	885091
642	2577	13.938712612323	885093
642	2811	14.394406995819	885094
642	2931	14.629920406995	885095
643	657	3.542146210273	7504
643	677	3.543906210273	7503
643	754	3.716792529679	7504
643	894	3.885901517137	7504
643	1385	4.16355091635	7504
643	1516	4.256572370006	7504
643	2118	12.364441966613	7504
643	2358	13.344511306376	7504
643	2577	13.938712612323	7504
643	2811	14.394406995819	7504
643	2931	14.629920406995	7504
644	657	3.542146210273	1
644	677	3.543906210273	0
644	741	3.715032529679	1
644	754	3.716792529679	0
644	844	3.884133517137	2
644	894	3.885901517137	0
644	1372	4.16179091635	1
644	1385	4.16355091635	0
644	1492	4.254812370006	1
644	1516	4.256572370006	0
644	2105	12.362681966613	1
644	2118	12.364441966613	0
644	2345	13.342751306376	1
644	2358	13.344511306376	0
644	2536	13.936944612323	2
644	2577	13.938712612323	0
644	2786	14.392646995819	1
644	2811	14.394406995819	0
644	2918	14.628160406995	1
644	2931	14.629920406995	0
645	667	3.543030210273	885083
645	747	3.715916529679	885084
645	867	3.885025517137	885085
645	1378	4.16267491635	885087
645	1505	4.255696370006	885088
645	2111	12.363565966613	885089
645	2351	13.343635306376	885090
645	2556	13.937836612323	885091
645	2792	14.393530995819	885093
645	2924	14.629044406995	885094
646	667	3.543030210273	885310
646	747	3.715916529679	885310
646	867	3.885025517137	885310
646	1378	4.16267491635	885310
646	1505	4.255696370006	885310
646	2111	12.363565966613	885310
646	2351	13.343635306376	885310
646	2556	13.937836612323	885310
646	2792	14.393530995819	885310
646	2924	14.629044406995	885310
647	667	3.543030210273	0
648	667	3.543030210273	1072
649	667	3.543030210273	4294967295
650	667	3.543030210273	0
650	747	3.715916529679	0
650	867	3.885025517137	0
650	1378	4.16267491635	0
650	1505	4.255696370006	0
650	2111	12.363565966613	0
650	2351	13.343635306376	0
650	2556	13.937836612323	0
650	2792	14.393530995819	0
650	2924	14.629044406995	0
651	677	3.543906210273	0.00176
651	754	3.716792529679	0.00176
651	894	3.885901517137	0.001768
651	1385	4.16355091635	0.00176
651	1516	4.256572370006	0.00176
651	2118	12.364441966613	0.00176
651	2358	13.344511306376	0.00176
651	2577	13.938712612323	0.001768
651	2811	14.394406995819	0.00176
651	2931	14.629920406995	0.00176
652	677	3.543906210273	0.00022
652	754	3.716792529679	0.0004125
652	894	3.885901517137	0.0005819375
652	1385	4.16355091635	0.000729195313
652	1516	4.256572370006	0.000858045899
652	2118	12.364441966613	0.000970790162
652	2358	13.344511306376	0.001069441392
652	2577	13.938712612323	0.001156761218
652	2811	14.394406995819	0.001232166066
652	2931	14.629920406995	0.001298145308
653	677	3.543906210273	0.65647
653	754	3.716792529679	0.57460375
653	894	3.885901517137	0.50294771875
653	1385	4.16355091635	0.440226511719
653	1516	4.256572370006	0.38532704834
653	2118	12.364441966613	0.33727391156
653	2358	13.344511306376	0.295213323845
653	2577	13.938712612323	0.25839897819
653	2811	14.394406995819	0.226174510764
653	2931	14.629920406995	0.19796867616
654	677	3.543906210273	2.6261
654	754	3.716792529679	2.2988275
654	894	3.885901517137	2.0123728125
654	1385	4.16355091635	1.761635242189
654	1516	4.256572370006	1.542166239259
654	2118	12.364441966613	1.350066436402
654	2358	13.344511306376	1.181922736772
654	2577	13.938712612323	1.034752673978
654	2811	14.394406995819	1
654	2931	14.629920406995	1
655	677	3.543906210273	1072
655	754	3.716792529679	1608
655	894	3.885901517137	2144
655	1385	4.16355091635	2680
655	1516	4.256572370006	3216
655	2118	12.364441966613	1072
655	2358	13.344511306376	1608
655	2577	13.938712612323	2144
655	2811	14.394406995819	2680
655	2931	14.629920406995	3216
656	677	3.543906210273	4294967295
656	754	3.716792529679	4294967295
656	894	3.885901517137	4294967295
656	1385	4.16355091635	4294967295
656	1516	4.256572370006	4294967295
656	2118	12.364441966613	4294967295
656	2358	13.344511306376	4294967295
656	2577	13.938712612323	4294967295
656	2811	14.394406995819	4294967295
656	2931	14.629920406995	4294967295
657	677	3.543906210273	0
657	754	3.716792529679	0
657	894	3.885901517137	0
657	1385	4.16355091635	0
657	1516	4.256572370006	0
657	2118	12.364441966613	0
657	2358	13.344511306376	0
657	2577	13.938712612323	0
657	2811	14.394406995819	0
657	2931	14.629920406995	0
658	694	3.597613452559	0
658	707	3.599429452559	0
658	726	3.709020383313	0
658	973	3.929697651785	0
658	1282	3.962199864377	0
658	1533	4.281607621326	0
658	2075	12.166295358135	0
658	2255	13.15960973101	0
658	2795	14.393530995819	0
658	3088	15.153901732963	0
658	3118	15.214509419233	0
659	694	3.597613452559	7504
659	707	3.599429452559	907135
659	707	3.599429452559	907135
659	726	3.709020383313	907135
659	973	3.929697651785	907135
659	1282	3.962199864377	907135
659	1533	4.281607621326	907135
659	2075	12.166295358135	907135
659	2255	13.15960973101	907135
659	2795	14.393530995819	907135
659	3088	15.153901732963	907135
659	3118	15.214509419233	907135
660	694	3.597613452559	7504
660	707	3.599429452559	7504
660	726	3.709020383313	7504
660	973	3.929697651785	7504
660	1282	3.962199864377	7504
660	1533	4.281607621326	7504
660	2075	12.166295358135	7504
660	2255	13.15960973101	7504
660	2795	14.393530995819	7504
660	3088	15.153901732963	7504
660	3118	15.214509419233	7504
661	694	3.597613452559	0
661	707	3.599429452559	899631
661	726	3.709020383313	899631
661	973	3.929697651785	899631
661	1282	3.962199864377	899631
661	1533	4.281607621326	899631
661	2075	12.166295358135	899631
661	2255	13.15960973101	899631
661	2795	14.393530995819	899631
661	3088	15.153901732963	899631
661	3118	15.214509419233	899631
662	701	3.598521452559	906908
662	701	3.598521452559	906908
662	714	3.600313452559	906908
662	732	3.709904383313	906910
662	1000	3.930589651785	906912
662	1288	3.963083864377	906913
662	1539	4.282491621326	906914
662	2081	12.167179358135	906915
662	2261	13.16049373101	906916
662	2836	14.394798995819	906918
662	3094	15.154785732963	906919
662	3124	15.215393419233	906920
663	701	3.598521452559	7504
663	714	3.600313452559	7504
664	701	3.598521452559	0
664	714	3.600313452559	0
664	714	3.600313452559	1
664	732	3.709904383313	0
664	732	3.709904383313	0
664	1000	3.930589651785	0
664	1000	3.930589651785	0
664	1288	3.963083864377	0
664	1288	3.963083864377	0
664	1539	4.282491621326	0
664	1539	4.282491621326	0
664	2081	12.167179358135	0
664	2081	12.167179358135	0
664	2261	13.16049373101	0
664	2261	13.16049373101	0
664	2836	14.394798995819	0
664	2836	14.394798995819	0
664	3094	15.154785732963	0
664	3094	15.154785732963	0
664	3124	15.215393419233	0
664	3124	15.215393419233	0
665	701	3.598521452559	7504
665	714	3.600313452559	7503
665	732	3.709904383313	7504
665	1000	3.930589651785	7504
665	1288	3.963083864377	7504
665	1539	4.282491621326	7504
665	2081	12.167179358135	7504
665	2261	13.16049373101	7504
665	2836	14.394798995819	7504
665	3094	15.154785732963	7504
665	3124	15.215393419233	7504
666	701	3.598521452559	899404
666	714	3.600313452559	899405
666	732	3.709904383313	899406
666	1000	3.930589651785	899408
666	1288	3.963083864377	899409
666	1539	4.282491621326	899410
666	2081	12.167179358135	899411
666	2261	13.16049373101	899412
666	2836	14.394798995819	899414
666	3094	15.154785732963	899415
666	3124	15.215393419233	899416
667	707	3.599429452559	899630
667	724	3.601189452559	899631
667	739	3.710780383313	899631
667	1032	3.931465651785	899631
667	1295	3.963959864377	899631
667	1546	4.283367621326	899631
667	2088	12.168055358135	899631
667	2268	13.16136973101	899631
667	2873	14.395674995819	899631
667	3101	15.155661732963	899631
667	3131	15.216269419233	899631
668	707	3.599429452559	899404
668	724	3.601189452559	899405
668	739	3.710780383313	899406
668	1032	3.931465651785	899408
668	1295	3.963959864377	899409
668	1546	4.283367621326	899410
668	2088	12.168055358135	899411
668	2268	13.16136973101	899412
668	2873	14.395674995819	899414
668	3101	15.155661732963	899415
668	3131	15.216269419233	899416
669	707	3.599429452559	7504
669	724	3.601189452559	7503
669	739	3.710780383313	7504
669	1032	3.931465651785	7504
669	1295	3.963959864377	7504
669	1546	4.283367621326	7504
669	2088	12.168055358135	7504
669	2268	13.16136973101	7504
669	2873	14.395674995819	7504
669	3101	15.155661732963	7504
669	3131	15.216269419233	7504
670	707	3.599429452559	1
670	724	3.601189452559	0
670	726	3.709020383313	1
670	739	3.710780383313	0
670	973	3.929697651785	2
670	1032	3.931465651785	0
670	1282	3.962199864377	1
670	1295	3.963959864377	0
670	1533	4.281607621326	1
670	1546	4.283367621326	0
670	2075	12.166295358135	1
670	2088	12.168055358135	0
670	2255	13.15960973101	1
670	2268	13.16136973101	0
670	2795	14.393530995819	2
670	2873	14.395674995819	0
670	3088	15.153901732963	1
670	3101	15.155661732963	0
670	3118	15.214509419233	1
670	3131	15.216269419233	0
671	714	3.600313452559	899404
671	732	3.709904383313	899405
671	1000	3.930589651785	899406
671	1288	3.963083864377	899408
671	1539	4.282491621326	899409
671	2081	12.167179358135	899410
671	2261	13.16049373101	899411
671	2836	14.394798995819	899412
671	3094	15.154785732963	899414
671	3124	15.215393419233	899415
672	714	3.600313452559	899631
672	732	3.709904383313	899631
672	1000	3.930589651785	899631
672	1288	3.963083864377	899631
672	1539	4.282491621326	899631
672	2081	12.167179358135	899631
672	2261	13.16049373101	899631
672	2836	14.394798995819	899631
672	3094	15.154785732963	899631
672	3124	15.215393419233	899631
673	714	3.600313452559	0
674	714	3.600313452559	1072
675	714	3.600313452559	4294967295
676	714	3.600313452559	0
676	732	3.709904383313	0
676	1000	3.930589651785	0
676	1288	3.963083864377	0
676	1539	4.282491621326	0
676	2081	12.167179358135	0
676	2261	13.16049373101	0
676	2836	14.394798995819	0
676	3094	15.154785732963	0
676	3124	15.215393419233	0
677	724	3.601189452559	0.00176
677	739	3.710780383313	0.00176
677	1032	3.931465651785	0.001768
677	1295	3.963959864377	0.00176
677	1546	4.283367621326	0.00176
677	2088	12.168055358135	0.00176
677	2268	13.16136973101	0.00176
677	2873	14.395674995819	0.002144
677	3101	15.155661732963	0.00176
677	3131	15.216269419233	0.00176
678	724	3.601189452559	0.00022
678	739	3.710780383313	0.0004125
678	1032	3.931465651785	0.0005819375
678	1295	3.963959864377	0.000729195313
678	1546	4.283367621326	0.000858045899
678	2088	12.168055358135	0.000970790162
678	2268	13.16136973101	0.001069441392
678	2873	14.395674995819	0.001203761218
678	3101	15.155661732963	0.001273291066
678	3131	15.216269419233	0.001334129683
679	724	3.601189452559	0.65647
679	739	3.710780383313	0.57460375
679	1032	3.931465651785	0.50294771875
679	1295	3.963959864377	0.440226511719
679	1546	4.283367621326	0.38532704834
679	2088	12.168055358135	0.33727391156
679	2268	13.16136973101	0.295213323845
679	2873	14.395674995819	0.25844597819
679	3101	15.155661732963	0.226209760764
679	3131	15.216269419233	0.197994379285
680	724	3.601189452559	2.6261
680	739	3.710780383313	2.2988275
680	1032	3.931465651785	2.0123728125
680	1295	3.963959864377	1.761635242189
680	1546	4.283367621326	1.542166239259
680	2088	12.168055358135	1.350066436402
680	2268	13.16136973101	1.181922736772
680	2873	14.395674995819	1.034987673978
680	3101	15.155661732963	1
680	3131	15.216269419233	1
681	724	3.601189452559	1072
681	739	3.710780383313	1608
681	1032	3.931465651785	2144
681	1295	3.963959864377	2680
681	1546	4.283367621326	3216
681	2088	12.168055358135	1072
681	2268	13.16136973101	1608
681	2873	14.395674995819	1072
681	3101	15.155661732963	1608
681	3131	15.216269419233	2144
682	724	3.601189452559	4294967295
682	739	3.710780383313	4294967295
682	1032	3.931465651785	4294967295
682	1295	3.963959864377	4294967295
682	1546	4.283367621326	4294967295
682	2088	12.168055358135	4294967295
682	2268	13.16136973101	4294967295
682	2873	14.395674995819	4294967295
682	3101	15.155661732963	4294967295
682	3131	15.216269419233	4294967295
683	724	3.601189452559	0
683	739	3.710780383313	0
683	1032	3.931465651785	0
683	1295	3.963959864377	0
683	1546	4.283367621326	0
683	2088	12.168055358135	0
683	2268	13.16136973101	0
683	2873	14.395674995819	0
683	3101	15.155661732963	0
683	3131	15.216269419233	0
684	842	3.884133517137	0
684	897	3.885949517137	0
684	1022	3.931333353679	0
684	1327	4.086198641926	0
684	1578	4.335808494155	0
684	1788	4.66034128715	0
684	2225	12.907803582873	0
684	2240	12.97152415711	0
684	2535	13.936944612323	0
684	2597	14.181247354229	0
684	2756	14.332250865566	0
685	842	3.884133517137	7504
685	897	3.885949517137	978765
685	897	3.885949517137	978765
685	1022	3.931333353679	978765
685	1327	4.086198641926	978765
685	1578	4.335808494155	978765
685	1788	4.66034128715	978765
685	2225	12.907803582873	978765
685	2240	12.97152415711	978765
685	2535	13.936944612323	978765
685	2597	14.181247354229	978765
685	2756	14.332250865566	978765
686	842	3.884133517137	7504
686	897	3.885949517137	7504
686	1022	3.931333353679	7504
686	1327	4.086198641926	7504
686	1578	4.335808494155	7504
686	1788	4.66034128715	7504
686	2225	12.907803582873	7504
686	2240	12.97152415711	7504
686	2535	13.936944612323	7504
686	2597	14.181247354229	7504
686	2756	14.332250865566	7504
687	842	3.884133517137	0
687	897	3.885949517137	971261
687	1022	3.931333353679	971261
687	1327	4.086198641926	971261
687	1578	4.335808494155	971261
687	1788	4.66034128715	971261
687	2225	12.907803582873	971261
687	2240	12.97152415711	971261
687	2535	13.936944612323	971261
687	2597	14.181247354229	971261
687	2756	14.332250865566	971261
688	876	3.885041517137	978538
688	876	3.885041517137	978538
688	907	3.886841517137	978538
688	1041	3.932217353679	978541
688	1333	4.087082641926	978542
688	1584	4.336692494155	978543
688	1794	4.66122528715	978544
688	2231	12.908687582873	978545
688	2246	12.97240815711	978546
688	2555	13.937836612323	978548
688	2603	14.182131354229	978549
688	2762	14.333134865566	978550
689	876	3.885041517137	7504
689	907	3.886841517137	7504
690	876	3.885041517137	0
690	907	3.886841517137	0
690	907	3.886841517137	2
690	1041	3.932217353679	0
690	1041	3.932217353679	0
690	1333	4.087082641926	0
690	1333	4.087082641926	0
690	1584	4.336692494155	0
690	1584	4.336692494155	0
690	1794	4.66122528715	0
690	1794	4.66122528715	0
690	2231	12.908687582873	0
690	2231	12.908687582873	0
690	2246	12.97240815711	0
690	2246	12.97240815711	0
690	2555	13.937836612323	0
690	2555	13.937836612323	0
690	2603	14.182131354229	0
690	2603	14.182131354229	0
690	2762	14.333134865566	0
690	2762	14.333134865566	0
691	876	3.885041517137	7504
691	907	3.886841517137	7502
691	1041	3.932217353679	7504
691	1333	4.087082641926	7504
691	1584	4.336692494155	7504
691	1794	4.66122528715	7504
691	2231	12.908687582873	7504
691	2246	12.97240815711	7504
691	2555	13.937836612323	7504
691	2603	14.182131354229	7504
691	2762	14.333134865566	7504
692	876	3.885041517137	971034
692	907	3.886841517137	971036
692	1041	3.932217353679	971037
692	1333	4.087082641926	971038
692	1584	4.336692494155	971039
692	1794	4.66122528715	971040
692	2231	12.908687582873	971041
692	2246	12.97240815711	971042
692	2555	13.937836612323	971044
692	2603	14.182131354229	971045
692	2762	14.333134865566	971046
693	897	3.885949517137	971260
693	917	3.887717517137	971261
693	1048	3.933093353679	971261
693	1340	4.087958641926	971261
693	1591	4.337568494155	971261
693	1801	4.66210128715	971261
693	2238	12.909563582873	971261
693	2253	12.97328415711	971261
693	2576	13.938712612323	971261
693	2622	14.183007354229	971261
693	2769	14.334010865566	971261
694	897	3.885949517137	971034
694	917	3.887717517137	971036
694	1048	3.933093353679	971037
694	1340	4.087958641926	971038
694	1591	4.337568494155	971039
694	1801	4.66210128715	971040
694	2238	12.909563582873	971041
694	2253	12.97328415711	971042
694	2576	13.938712612323	971044
694	2622	14.183007354229	971045
694	2769	14.334010865566	971046
695	897	3.885949517137	7504
695	917	3.887717517137	7502
695	1048	3.933093353679	7504
695	1340	4.087958641926	7504
695	1591	4.337568494155	7504
695	1801	4.66210128715	7504
695	2238	12.909563582873	7504
695	2253	12.97328415711	7504
695	2576	13.938712612323	7504
695	2622	14.183007354229	7504
695	2769	14.334010865566	7504
696	897	3.885949517137	2
696	917	3.887717517137	0
696	1022	3.931333353679	1
696	1048	3.933093353679	0
696	1327	4.086198641926	1
696	1340	4.087958641926	0
696	1578	4.335808494155	1
696	1591	4.337568494155	0
696	1788	4.66034128715	1
696	1801	4.66210128715	0
696	2225	12.907803582873	1
696	2238	12.909563582873	0
696	2240	12.97152415711	1
696	2253	12.97328415711	0
696	2535	13.936944612323	2
696	2576	13.938712612323	0
696	2597	14.181247354229	1
696	2622	14.183007354229	0
696	2756	14.332250865566	1
696	2769	14.334010865566	0
697	907	3.886841517137	971034
697	1041	3.932217353679	971036
697	1333	4.087082641926	971037
697	1584	4.336692494155	971038
697	1794	4.66122528715	971039
697	2231	12.908687582873	971040
697	2246	12.97240815711	971041
697	2555	13.937836612323	971042
697	2603	14.182131354229	971044
697	2762	14.333134865566	971045
698	907	3.886841517137	971261
698	1041	3.932217353679	971261
698	1333	4.087082641926	971261
698	1584	4.336692494155	971261
698	1794	4.66122528715	971261
698	2231	12.908687582873	971261
698	2246	12.97240815711	971261
698	2555	13.937836612323	971261
698	2603	14.182131354229	971261
698	2762	14.333134865566	971261
699	907	3.886841517137	0
700	907	3.886841517137	1072
701	907	3.886841517137	4294967295
702	907	3.886841517137	0
702	1041	3.932217353679	0
702	1333	4.087082641926	0
702	1584	4.336692494155	0
702	1794	4.66122528715	0
702	2231	12.908687582873	0
702	2246	12.97240815711	0
702	2555	13.937836612323	0
702	2603	14.182131354229	0
702	2762	14.333134865566	0
703	917	3.887717517137	0.001768
703	1048	3.933093353679	0.00176
703	1340	4.087958641926	0.00176
703	1591	4.337568494155	0.00176
703	1801	4.66210128715	0.00176
703	2238	12.909563582873	0.00176
703	2253	12.97328415711	0.00176
703	2576	13.938712612323	0.001768
703	2622	14.183007354229	0.00176
703	2769	14.334010865566	0.00176
704	917	3.887717517137	0.000221
704	1048	3.933093353679	0.000413375
704	1340	4.087958641926	0.000581703125
704	1591	4.337568494155	0.000728990234
704	1801	4.66210128715	0.000857866455
704	2238	12.909563582873	0.000970633148
704	2253	12.97328415711	0.001069304005
704	2576	13.938712612323	0.001156641004
704	2622	14.183007354229	0.001232060879
704	2769	14.334010865566	0.001298053269
705	917	3.887717517137	0.656471
705	1048	3.933093353679	0.5746045
705	1340	4.087958641926	0.502947265625
705	1591	4.337568494155	0.440226144531
705	1801	4.66210128715	0.385326752685
705	2238	12.909563582873	0.337273675293
705	2253	12.97328415711	0.295213136738
705	2576	13.938712612323	0.258398831645
705	2622	14.183007354229	0.226174397564
705	2769	14.334010865566	0.197968590259
706	917	3.887717517137	2.626105
706	1048	3.933093353679	2.298831375
706	1340	4.087958641926	2.012370765625
706	1591	4.337568494155	1.761633568358
706	1801	4.66210128715	1.542164877195
706	2238	12.909563582873	1.35006533432
706	2253	12.97328415711	1.181921850957
706	2576	13.938712612323	1.034751967584
706	2622	14.183007354229	1
706	2769	14.334010865566	1
707	917	3.887717517137	1072
707	1048	3.933093353679	1608
707	1340	4.087958641926	2144
707	1591	4.337568494155	2680
707	1801	4.66210128715	3216
707	2238	12.909563582873	1072
707	2253	12.97328415711	1608
707	2576	13.938712612323	2144
707	2622	14.183007354229	2680
707	2769	14.334010865566	3216
708	917	3.887717517137	4294967295
708	1048	3.933093353679	4294967295
708	1340	4.087958641926	4294967295
708	1591	4.337568494155	4294967295
708	1801	4.66210128715	4294967295
708	2238	12.909563582873	4294967295
708	2253	12.97328415711	4294967295
708	2576	13.938712612323	4294967295
708	2622	14.183007354229	4294967295
708	2769	14.334010865566	4294967295
709	917	3.887717517137	0
709	1048	3.933093353679	0
709	1340	4.087958641926	0
709	1591	4.337568494155	0
709	1801	4.66210128715	0
709	2238	12.909563582873	0
709	2253	12.97328415711	0
709	2576	13.938712612323	0
709	2622	14.183007354229	0
709	2769	14.334010865566	0

