file 176207 1641910034                                          
version 2
run LJ_03-0-20220111-15:07:11-9096
attr configname LJ_03
attr datetime 20220111-15:07:11
attr experiment LJ_03
attr inifile omnetpp.ini
attr iterationvars ""
attr iterationvarsf ""
attr measurement ""
attr network scenario
attr processid 9096
attr repetition 0
attr replication #0
attr resultdir results
attr runnumber 0
attr seedset 0
param **.client0.app[0].leave 0.0
param **.client3.app[0].join 0.0
param **.ppp[*].ppp.queue.typename "\"DropTailQueue\""
param **.tcp.typename "\"Tcp\""
param **.tcp.nagleEnabled false
param **.cli*.app[*].nPar 5
param **.cli*.app[*].fPar 0
param **.numApps 1
param **.client0.app[*].typename "\"Node\""
param **.client0.app[0].localPort 1000
param **.client0.app[0].localPortL 1234
param **.client0.app[0].connectAddress "\"\""
param **.client0.app[0].connectPort 1234
param **.client1.app[*].typename "\"Node\""
param **.client1.app[0].localPort 1001
param **.client1.app[0].localPortL 1234
param **.client1.app[0].connectAddress "\"\""
param **.client1.app[0].connectPort 1234
param **.client2.app[*].typename "\"Node\""
param **.client2.app[0].localPort 1002
param **.client2.app[0].localPortL 1234
param **.client2.app[0].connectAddress "\"\""
param **.client2.app[0].connectPort 1234
param **.client3.app[*].typename "\"Node\""
param **.client3.app[0].localPort 1003
param **.client3.app[0].localPortL 1234
param **.client3.app[0].connectAddress "\"\""
param **.client3.app[0].connectPort 1234
param **.client4.app[*].typename "\"Node\""
param **.client4.app[0].localPort 1004
param **.client4.app[0].localPortL 1234
param **.client4.app[0].connectAddress "\"\""
param **.client4.app[0].connectPort 1234
param *.configurator.dumpAddresses true
param *.configurator.dumpTopology true
param *.configurator.dumpLinks true
param *.configurator.dumpRoutes true

vector 0 scenario.client0.ppp[0].ppp transmissionState:vector ETV
attr interpolationmode sample-hold
attr source transmissionStateChanged
attr title "tx state, vector"
vector 1 scenario.client0.ppp[1].ppp transmissionState:vector ETV
attr interpolationmode sample-hold
attr source transmissionStateChanged
attr title "tx state, vector"
vector 2 scenario.client0.ppp[2].ppp transmissionState:vector ETV
attr interpolationmode sample-hold
attr source transmissionStateChanged
attr title "tx state, vector"
vector 3 scenario.client0.ppp[3].ppp transmissionState:vector ETV
attr interpolationmode sample-hold
attr source transmissionStateChanged
attr title "tx state, vector"
vector 4 scenario.client1.ppp[0].ppp transmissionState:vector ETV
attr interpolationmode sample-hold
attr source transmissionStateChanged
attr title "tx state, vector"
vector 5 scenario.client1.ppp[1].ppp transmissionState:vector ETV
attr interpolationmode sample-hold
attr source transmissionStateChanged
attr title "tx state, vector"
vector 6 scenario.client1.ppp[2].ppp transmissionState:vector ETV
attr interpolationmode sample-hold
attr source transmissionStateChanged
attr title "tx state, vector"
vector 7 scenario.client1.ppp[3].ppp transmissionState:vector ETV
attr interpolationmode sample-hold
attr source transmissionStateChanged
attr title "tx state, vector"
vector 8 scenario.client2.ppp[0].ppp transmissionState:vector ETV
attr interpolationmode sample-hold
attr source transmissionStateChanged
attr title "tx state, vector"
vector 9 scenario.client2.ppp[1].ppp transmissionState:vector ETV
attr interpolationmode sample-hold
attr source transmissionStateChanged
attr title "tx state, vector"
vector 10 scenario.client2.ppp[2].ppp transmissionState:vector ETV
attr interpolationmode sample-hold
attr source transmissionStateChanged
attr title "tx state, vector"
vector 11 scenario.client2.ppp[3].ppp transmissionState:vector ETV
attr interpolationmode sample-hold
attr source transmissionStateChanged
attr title "tx state, vector"
vector 12 scenario.client3.ppp[0].ppp transmissionState:vector ETV
attr interpolationmode sample-hold
attr source transmissionStateChanged
attr title "tx state, vector"
vector 13 scenario.client3.ppp[1].ppp transmissionState:vector ETV
attr interpolationmode sample-hold
attr source transmissionStateChanged
attr title "tx state, vector"
vector 14 scenario.client3.ppp[2].ppp transmissionState:vector ETV
attr interpolationmode sample-hold
attr source transmissionStateChanged
attr title "tx state, vector"
vector 15 scenario.client3.ppp[3].ppp transmissionState:vector ETV
attr interpolationmode sample-hold
attr source transmissionStateChanged
attr title "tx state, vector"
vector 16 scenario.client4.ppp[0].ppp transmissionState:vector ETV
attr interpolationmode sample-hold
attr source transmissionStateChanged
attr title "tx state, vector"
vector 17 scenario.client4.ppp[1].ppp transmissionState:vector ETV
attr interpolationmode sample-hold
attr source transmissionStateChanged
attr title "tx state, vector"
vector 18 scenario.client4.ppp[2].ppp transmissionState:vector ETV
attr interpolationmode sample-hold
attr source transmissionStateChanged
attr title "tx state, vector"
vector 19 scenario.client4.ppp[3].ppp transmissionState:vector ETV
attr interpolationmode sample-hold
attr source transmissionStateChanged
attr title "tx state, vector"
vector 20 scenario.client0.tcp.conn-25 tcpRcvQueueBytes:vector ETV
attr interpolationmode sample-hold
vector 21 scenario.client0.tcp.conn-25 rcvAdv:vector ETV
attr interpolationmode sample-hold
vector 22 scenario.client0.tcp.conn-25 rcvWnd:vector ETV
attr interpolationmode sample-hold
vector 23 scenario.client0.tcp.conn-25 sndAck:vector ETV
attr interpolationmode sample-hold
vector 24 scenario.client0.ppp[0].ppp rcvdPkFromHl:vector(packetBytes) ETV
attr interpolationmode none
attr source packetReceivedFromUpper
attr title "packets received from higher layer, vector(packetBytes)"
vector 25 scenario.client0.ppp[0].ppp.queue packetPushed:vector(packetBytes) ETV
attr interpolationmode none
attr title "packet pushed, vector(packetBytes)"
vector 26 scenario.client0.ppp[0].ppp.queue queueLength:vector ETV
attr interpolationmode sample-hold
attr source "count(packetPushed) - count(packetPopped) - count(packetRemoved) - count(packetDropped)"
attr title "queue length, vector"
vector 27 scenario.client0.ppp[0].ppp.queue packetPopped:vector(packetBytes) ETV
attr interpolationmode none
attr title "packet popped, vector(packetBytes)"
vector 28 scenario.client0.ppp[0].ppp.queue queueingTime:vector ETV
attr interpolationmode none
attr source queueingTime(packetPopped)
attr title "queueing times, vector"
attr unit s
vector 29 scenario.client0.ppp[0].ppp txPk:vector(packetBytes) ETV
attr interpolationmode none
attr source packetSentToLower
attr title "packets transmitted, vector(packetBytes)"
vector 30 scenario.client1.ppp[0].ppp rxPkOk:vector(packetBytes) ETV
attr interpolationmode none
attr source rxPkOk
attr title "packets received OK, vector(packetBytes)"
vector 31 scenario.client1.ppp[0].ppp passedUpPk:vector(packetBytes) ETV
attr interpolationmode none
attr source packetSentToUpper
attr title "packets passed to higher layer, vector(packetBytes)"
vector 32 scenario.client1.tcp.conn-1 rcvSeq:vector ETV
attr interpolationmode sample-hold
vector 33 scenario.client1.tcp.conn-1 rcvAck:vector ETV
attr interpolationmode sample-hold
vector 34 scenario.client1.tcp.conn-26 rcvAdv:vector ETV
attr interpolationmode sample-hold
vector 35 scenario.client1.tcp.conn-26 sndWnd:vector ETV
attr interpolationmode sample-hold
vector 36 scenario.client1.tcp.conn-26 tcpRcvQueueBytes:vector ETV
attr interpolationmode sample-hold
vector 37 scenario.client1.tcp.conn-26 rcvWnd:vector ETV
attr interpolationmode sample-hold
vector 38 scenario.client1.tcp.conn-26 sndAck:vector ETV
attr interpolationmode sample-hold
vector 39 scenario.client1.ppp[0].ppp rcvdPkFromHl:vector(packetBytes) ETV
attr interpolationmode none
attr source packetReceivedFromUpper
attr title "packets received from higher layer, vector(packetBytes)"
vector 40 scenario.client1.ppp[0].ppp.queue packetPushed:vector(packetBytes) ETV
attr interpolationmode none
attr title "packet pushed, vector(packetBytes)"
vector 41 scenario.client1.ppp[0].ppp.queue queueLength:vector ETV
attr interpolationmode sample-hold
attr source "count(packetPushed) - count(packetPopped) - count(packetRemoved) - count(packetDropped)"
attr title "queue length, vector"
vector 42 scenario.client1.ppp[0].ppp.queue packetPopped:vector(packetBytes) ETV
attr interpolationmode none
attr title "packet popped, vector(packetBytes)"
vector 43 scenario.client1.ppp[0].ppp.queue queueingTime:vector ETV
attr interpolationmode none
attr source queueingTime(packetPopped)
attr title "queueing times, vector"
attr unit s
vector 44 scenario.client1.ppp[0].ppp txPk:vector(packetBytes) ETV
attr interpolationmode none
attr source packetSentToLower
attr title "packets transmitted, vector(packetBytes)"
vector 45 scenario.client0.ppp[0].ppp rxPkOk:vector(packetBytes) ETV
attr interpolationmode none
attr source rxPkOk
attr title "packets received OK, vector(packetBytes)"
vector 46 scenario.client0.ppp[0].ppp passedUpPk:vector(packetBytes) ETV
attr interpolationmode none
attr source packetSentToUpper
attr title "packets passed to higher layer, vector(packetBytes)"
vector 47 scenario.client0.tcp.conn-25 rcvSeq:vector ETV
attr interpolationmode sample-hold
vector 48 scenario.client0.tcp.conn-25 rcvAck:vector ETV
attr interpolationmode sample-hold
vector 49 scenario.client0.tcp.conn-25 sndWnd:vector ETV
attr interpolationmode sample-hold
vector 50 scenario.client0.tcp.conn-25 unacked:vector ETV
attr interpolationmode sample-hold
vector 51 scenario.client1.tcp.conn-26 rcvSeq:vector ETV
attr interpolationmode sample-hold
vector 52 scenario.client1.tcp.conn-26 rcvAck:vector ETV
attr interpolationmode sample-hold
vector 53 scenario.client1.tcp.conn-26 unacked:vector ETV
attr interpolationmode sample-hold
vector 54 scenario.client1.tcp.conn-26 cwnd:vector ETV
attr interpolationmode sample-hold
vector 55 scenario.client1.tcp.conn-26 ssthresh:vector ETV
attr interpolationmode sample-hold
vector 56 scenario.client1.tcp.conn-26 dupAcks:vector ETV
attr interpolationmode sample-hold
vector 57 scenario.client0.tcp.conn-25 rtt:vector ETV
attr interpolationmode sample-hold
vector 58 scenario.client0.tcp.conn-25 srtt:vector ETV
attr interpolationmode sample-hold
vector 59 scenario.client0.tcp.conn-25 rttvar:vector ETV
attr interpolationmode sample-hold
vector 60 scenario.client0.tcp.conn-25 rto:vector ETV
attr interpolationmode sample-hold
vector 61 scenario.client0.tcp.conn-25 cwnd:vector ETV
attr interpolationmode sample-hold
vector 62 scenario.client0.tcp.conn-25 ssthresh:vector ETV
attr interpolationmode sample-hold
vector 63 scenario.client0.tcp.conn-25 dupAcks:vector ETV
attr interpolationmode sample-hold
vector 64 scenario.client1.tcp.conn-27 tcpRcvQueueBytes:vector ETV
attr interpolationmode sample-hold
vector 65 scenario.client1.tcp.conn-27 rcvAdv:vector ETV
attr interpolationmode sample-hold
vector 66 scenario.client1.tcp.conn-27 rcvWnd:vector ETV
attr interpolationmode sample-hold
vector 67 scenario.client1.tcp.conn-27 sndAck:vector ETV
attr interpolationmode sample-hold
vector 68 scenario.client0.tcp.conn-0 rcvSeq:vector ETV
attr interpolationmode sample-hold
vector 69 scenario.client0.tcp.conn-0 rcvAck:vector ETV
attr interpolationmode sample-hold
vector 70 scenario.client0.tcp.conn-28 rcvAdv:vector ETV
attr interpolationmode sample-hold
vector 71 scenario.client0.tcp.conn-28 sndWnd:vector ETV
attr interpolationmode sample-hold
vector 72 scenario.client0.tcp.conn-28 tcpRcvQueueBytes:vector ETV
attr interpolationmode sample-hold
vector 73 scenario.client0.tcp.conn-28 rcvWnd:vector ETV
attr interpolationmode sample-hold
vector 74 scenario.client0.tcp.conn-28 sndAck:vector ETV
attr interpolationmode sample-hold
vector 75 scenario.client1.tcp.conn-27 rcvSeq:vector ETV
attr interpolationmode sample-hold
vector 76 scenario.client1.tcp.conn-27 rcvAck:vector ETV
attr interpolationmode sample-hold
vector 77 scenario.client1.tcp.conn-27 sndWnd:vector ETV
attr interpolationmode sample-hold
vector 78 scenario.client1.tcp.conn-27 unacked:vector ETV
attr interpolationmode sample-hold
vector 79 scenario.client0.tcp.conn-28 rcvSeq:vector ETV
attr interpolationmode sample-hold
vector 80 scenario.client0.tcp.conn-28 rcvAck:vector ETV
attr interpolationmode sample-hold
vector 81 scenario.client0.tcp.conn-28 unacked:vector ETV
attr interpolationmode sample-hold
vector 82 scenario.client0.tcp.conn-28 cwnd:vector ETV
attr interpolationmode sample-hold
vector 83 scenario.client0.tcp.conn-28 ssthresh:vector ETV
attr interpolationmode sample-hold
vector 84 scenario.client0.tcp.conn-28 dupAcks:vector ETV
attr interpolationmode sample-hold
vector 85 scenario.client1.tcp.conn-27 rtt:vector ETV
attr interpolationmode sample-hold
vector 86 scenario.client1.tcp.conn-27 srtt:vector ETV
attr interpolationmode sample-hold
vector 87 scenario.client1.tcp.conn-27 rttvar:vector ETV
attr interpolationmode sample-hold
vector 88 scenario.client1.tcp.conn-27 rto:vector ETV
attr interpolationmode sample-hold
vector 89 scenario.client1.tcp.conn-27 cwnd:vector ETV
attr interpolationmode sample-hold
vector 90 scenario.client1.tcp.conn-27 ssthresh:vector ETV
attr interpolationmode sample-hold
vector 91 scenario.client1.tcp.conn-27 dupAcks:vector ETV
attr interpolationmode sample-hold
vector 92 scenario.client3.tcp.conn-29 tcpRcvQueueBytes:vector ETV
attr interpolationmode sample-hold
vector 93 scenario.client3.tcp.conn-29 rcvAdv:vector ETV
attr interpolationmode sample-hold
vector 94 scenario.client3.tcp.conn-29 rcvWnd:vector ETV
attr interpolationmode sample-hold
vector 95 scenario.client3.tcp.conn-29 sndAck:vector ETV
attr interpolationmode sample-hold
vector 96 scenario.client3.ppp[0].ppp rcvdPkFromHl:vector(packetBytes) ETV
attr interpolationmode none
attr source packetReceivedFromUpper
attr title "packets received from higher layer, vector(packetBytes)"
vector 97 scenario.client3.ppp[0].ppp.queue packetPushed:vector(packetBytes) ETV
attr interpolationmode none
attr title "packet pushed, vector(packetBytes)"
vector 98 scenario.client3.ppp[0].ppp.queue queueLength:vector ETV
attr interpolationmode sample-hold
attr source "count(packetPushed) - count(packetPopped) - count(packetRemoved) - count(packetDropped)"
attr title "queue length, vector"
vector 99 scenario.client3.ppp[0].ppp.queue packetPopped:vector(packetBytes) ETV
attr interpolationmode none
attr title "packet popped, vector(packetBytes)"
vector 100 scenario.client3.ppp[0].ppp.queue queueingTime:vector ETV
attr interpolationmode none
attr source queueingTime(packetPopped)
attr title "queueing times, vector"
attr unit s
vector 101 scenario.client3.ppp[0].ppp txPk:vector(packetBytes) ETV
attr interpolationmode none
attr source packetSentToLower
attr title "packets transmitted, vector(packetBytes)"
vector 102 scenario.client0.ppp[2].ppp rxPkOk:vector(packetBytes) ETV
attr interpolationmode none
attr source rxPkOk
attr title "packets received OK, vector(packetBytes)"
vector 103 scenario.client0.ppp[2].ppp passedUpPk:vector(packetBytes) ETV
attr interpolationmode none
attr source packetSentToUpper
attr title "packets passed to higher layer, vector(packetBytes)"
vector 104 scenario.client0.tcp.conn-30 rcvAdv:vector ETV
attr interpolationmode sample-hold
vector 105 scenario.client0.tcp.conn-30 sndWnd:vector ETV
attr interpolationmode sample-hold
vector 106 scenario.client0.tcp.conn-30 tcpRcvQueueBytes:vector ETV
attr interpolationmode sample-hold
vector 107 scenario.client0.tcp.conn-30 rcvWnd:vector ETV
attr interpolationmode sample-hold
vector 108 scenario.client0.tcp.conn-30 sndAck:vector ETV
attr interpolationmode sample-hold
vector 109 scenario.client0.ppp[2].ppp rcvdPkFromHl:vector(packetBytes) ETV
attr interpolationmode none
attr source packetReceivedFromUpper
attr title "packets received from higher layer, vector(packetBytes)"
vector 110 scenario.client0.ppp[2].ppp.queue packetPushed:vector(packetBytes) ETV
attr interpolationmode none
attr title "packet pushed, vector(packetBytes)"
vector 111 scenario.client0.ppp[2].ppp.queue queueLength:vector ETV
attr interpolationmode sample-hold
attr source "count(packetPushed) - count(packetPopped) - count(packetRemoved) - count(packetDropped)"
attr title "queue length, vector"
vector 112 scenario.client0.ppp[2].ppp.queue packetPopped:vector(packetBytes) ETV
attr interpolationmode none
attr title "packet popped, vector(packetBytes)"
vector 113 scenario.client0.ppp[2].ppp.queue queueingTime:vector ETV
attr interpolationmode none
attr source queueingTime(packetPopped)
attr title "queueing times, vector"
attr unit s
vector 114 scenario.client0.ppp[2].ppp txPk:vector(packetBytes) ETV
attr interpolationmode none
attr source packetSentToLower
attr title "packets transmitted, vector(packetBytes)"
vector 115 scenario.client3.ppp[0].ppp rxPkOk:vector(packetBytes) ETV
attr interpolationmode none
attr source rxPkOk
attr title "packets received OK, vector(packetBytes)"
vector 116 scenario.client3.ppp[0].ppp passedUpPk:vector(packetBytes) ETV
attr interpolationmode none
attr source packetSentToUpper
attr title "packets passed to higher layer, vector(packetBytes)"
vector 117 scenario.client3.tcp.conn-29 rcvSeq:vector ETV
attr interpolationmode sample-hold
vector 118 scenario.client3.tcp.conn-29 rcvAck:vector ETV
attr interpolationmode sample-hold
vector 119 scenario.client3.tcp.conn-29 sndWnd:vector ETV
attr interpolationmode sample-hold
vector 120 scenario.client3.tcp.conn-29 unacked:vector ETV
attr interpolationmode sample-hold
vector 121 scenario.client0.tcp.conn-30 rcvSeq:vector ETV
attr interpolationmode sample-hold
vector 122 scenario.client0.tcp.conn-30 rcvAck:vector ETV
attr interpolationmode sample-hold
vector 123 scenario.client0.tcp.conn-30 unacked:vector ETV
attr interpolationmode sample-hold
vector 124 scenario.client0.tcp.conn-30 cwnd:vector ETV
attr interpolationmode sample-hold
vector 125 scenario.client0.tcp.conn-30 ssthresh:vector ETV
attr interpolationmode sample-hold
vector 126 scenario.client0.tcp.conn-30 dupAcks:vector ETV
attr interpolationmode sample-hold
vector 127 scenario.client3.tcp.conn-29 rtt:vector ETV
attr interpolationmode sample-hold
vector 128 scenario.client3.tcp.conn-29 srtt:vector ETV
attr interpolationmode sample-hold
vector 129 scenario.client3.tcp.conn-29 rttvar:vector ETV
attr interpolationmode sample-hold
vector 130 scenario.client3.tcp.conn-29 rto:vector ETV
attr interpolationmode sample-hold
vector 131 scenario.client3.tcp.conn-29 cwnd:vector ETV
attr interpolationmode sample-hold
vector 132 scenario.client3.tcp.conn-29 ssthresh:vector ETV
attr interpolationmode sample-hold
vector 133 scenario.client3.tcp.conn-29 dupAcks:vector ETV
attr interpolationmode sample-hold
vector 134 scenario.client0.tcp.conn-31 tcpRcvQueueBytes:vector ETV
attr interpolationmode sample-hold
vector 135 scenario.client0.tcp.conn-31 rcvAdv:vector ETV
attr interpolationmode sample-hold
vector 136 scenario.client0.tcp.conn-31 rcvWnd:vector ETV
attr interpolationmode sample-hold
vector 137 scenario.client0.tcp.conn-31 sndAck:vector ETV
attr interpolationmode sample-hold
vector 138 scenario.client3.tcp.conn-3 rcvSeq:vector ETV
attr interpolationmode sample-hold
vector 139 scenario.client3.tcp.conn-3 rcvAck:vector ETV
attr interpolationmode sample-hold
vector 140 scenario.client3.tcp.conn-32 rcvAdv:vector ETV
attr interpolationmode sample-hold
vector 141 scenario.client3.tcp.conn-32 sndWnd:vector ETV
attr interpolationmode sample-hold
vector 142 scenario.client3.tcp.conn-32 tcpRcvQueueBytes:vector ETV
attr interpolationmode sample-hold
vector 143 scenario.client3.tcp.conn-32 rcvWnd:vector ETV
attr interpolationmode sample-hold
vector 144 scenario.client3.tcp.conn-32 sndAck:vector ETV
attr interpolationmode sample-hold
vector 145 scenario.client0.tcp.conn-31 rcvSeq:vector ETV
attr interpolationmode sample-hold
vector 146 scenario.client0.tcp.conn-31 rcvAck:vector ETV
attr interpolationmode sample-hold
vector 147 scenario.client0.tcp.conn-31 sndWnd:vector ETV
attr interpolationmode sample-hold
vector 148 scenario.client0.tcp.conn-31 unacked:vector ETV
attr interpolationmode sample-hold
vector 149 scenario.client3.tcp.conn-32 rcvSeq:vector ETV
attr interpolationmode sample-hold
vector 150 scenario.client3.tcp.conn-32 rcvAck:vector ETV
attr interpolationmode sample-hold
vector 151 scenario.client3.tcp.conn-32 unacked:vector ETV
attr interpolationmode sample-hold
vector 152 scenario.client3.tcp.conn-32 cwnd:vector ETV
attr interpolationmode sample-hold
vector 153 scenario.client3.tcp.conn-32 ssthresh:vector ETV
attr interpolationmode sample-hold
vector 154 scenario.client3.tcp.conn-32 dupAcks:vector ETV
attr interpolationmode sample-hold
vector 155 scenario.client0.tcp.conn-31 rtt:vector ETV
attr interpolationmode sample-hold
vector 156 scenario.client0.tcp.conn-31 srtt:vector ETV
attr interpolationmode sample-hold
vector 157 scenario.client0.tcp.conn-31 rttvar:vector ETV
attr interpolationmode sample-hold
vector 158 scenario.client0.tcp.conn-31 rto:vector ETV
attr interpolationmode sample-hold
vector 159 scenario.client0.tcp.conn-31 cwnd:vector ETV
attr interpolationmode sample-hold
vector 160 scenario.client0.tcp.conn-31 ssthresh:vector ETV
attr interpolationmode sample-hold
vector 161 scenario.client0.tcp.conn-31 dupAcks:vector ETV
attr interpolationmode sample-hold
vector 162 scenario.client0.tcp.conn-33 tcpRcvQueueBytes:vector ETV
attr interpolationmode sample-hold
vector 163 scenario.client0.tcp.conn-33 rcvAdv:vector ETV
attr interpolationmode sample-hold
vector 164 scenario.client0.tcp.conn-33 rcvWnd:vector ETV
attr interpolationmode sample-hold
vector 165 scenario.client0.tcp.conn-33 sndAck:vector ETV
attr interpolationmode sample-hold
vector 166 scenario.client0.ppp[1].ppp rcvdPkFromHl:vector(packetBytes) ETV
attr interpolationmode none
attr source packetReceivedFromUpper
attr title "packets received from higher layer, vector(packetBytes)"
vector 167 scenario.client0.ppp[1].ppp.queue packetPushed:vector(packetBytes) ETV
attr interpolationmode none
attr title "packet pushed, vector(packetBytes)"
vector 168 scenario.client0.ppp[1].ppp.queue queueLength:vector ETV
attr interpolationmode sample-hold
attr source "count(packetPushed) - count(packetPopped) - count(packetRemoved) - count(packetDropped)"
attr title "queue length, vector"
vector 169 scenario.client0.ppp[1].ppp.queue packetPopped:vector(packetBytes) ETV
attr interpolationmode none
attr title "packet popped, vector(packetBytes)"
vector 170 scenario.client0.ppp[1].ppp.queue queueingTime:vector ETV
attr interpolationmode none
attr source queueingTime(packetPopped)
attr title "queueing times, vector"
attr unit s
vector 171 scenario.client0.ppp[1].ppp txPk:vector(packetBytes) ETV
attr interpolationmode none
attr source packetSentToLower
attr title "packets transmitted, vector(packetBytes)"
vector 172 scenario.client2.ppp[0].ppp rxPkOk:vector(packetBytes) ETV
attr interpolationmode none
attr source rxPkOk
attr title "packets received OK, vector(packetBytes)"
vector 173 scenario.client2.ppp[0].ppp passedUpPk:vector(packetBytes) ETV
attr interpolationmode none
attr source packetSentToUpper
attr title "packets passed to higher layer, vector(packetBytes)"
vector 174 scenario.client2.tcp.conn-2 rcvSeq:vector ETV
attr interpolationmode sample-hold
vector 175 scenario.client2.tcp.conn-2 rcvAck:vector ETV
attr interpolationmode sample-hold
vector 176 scenario.client2.tcp.conn-34 rcvAdv:vector ETV
attr interpolationmode sample-hold
vector 177 scenario.client2.tcp.conn-34 sndWnd:vector ETV
attr interpolationmode sample-hold
vector 178 scenario.client2.tcp.conn-34 tcpRcvQueueBytes:vector ETV
attr interpolationmode sample-hold
vector 179 scenario.client2.tcp.conn-34 rcvWnd:vector ETV
attr interpolationmode sample-hold
vector 180 scenario.client2.tcp.conn-34 sndAck:vector ETV
attr interpolationmode sample-hold
vector 181 scenario.client2.ppp[0].ppp rcvdPkFromHl:vector(packetBytes) ETV
attr interpolationmode none
attr source packetReceivedFromUpper
attr title "packets received from higher layer, vector(packetBytes)"
vector 182 scenario.client2.ppp[0].ppp.queue packetPushed:vector(packetBytes) ETV
attr interpolationmode none
attr title "packet pushed, vector(packetBytes)"
vector 183 scenario.client2.ppp[0].ppp.queue queueLength:vector ETV
attr interpolationmode sample-hold
attr source "count(packetPushed) - count(packetPopped) - count(packetRemoved) - count(packetDropped)"
attr title "queue length, vector"
vector 184 scenario.client2.ppp[0].ppp.queue packetPopped:vector(packetBytes) ETV
attr interpolationmode none
attr title "packet popped, vector(packetBytes)"
vector 185 scenario.client2.ppp[0].ppp.queue queueingTime:vector ETV
attr interpolationmode none
attr source queueingTime(packetPopped)
attr title "queueing times, vector"
attr unit s
vector 186 scenario.client2.ppp[0].ppp txPk:vector(packetBytes) ETV
attr interpolationmode none
attr source packetSentToLower
attr title "packets transmitted, vector(packetBytes)"
vector 187 scenario.client0.ppp[1].ppp rxPkOk:vector(packetBytes) ETV
attr interpolationmode none
attr source rxPkOk
attr title "packets received OK, vector(packetBytes)"
vector 188 scenario.client0.ppp[1].ppp passedUpPk:vector(packetBytes) ETV
attr interpolationmode none
attr source packetSentToUpper
attr title "packets passed to higher layer, vector(packetBytes)"
vector 189 scenario.client0.tcp.conn-33 rcvSeq:vector ETV
attr interpolationmode sample-hold
vector 190 scenario.client0.tcp.conn-33 rcvAck:vector ETV
attr interpolationmode sample-hold
vector 191 scenario.client0.tcp.conn-33 sndWnd:vector ETV
attr interpolationmode sample-hold
vector 192 scenario.client0.tcp.conn-33 unacked:vector ETV
attr interpolationmode sample-hold
vector 193 scenario.client2.tcp.conn-34 rcvSeq:vector ETV
attr interpolationmode sample-hold
vector 194 scenario.client2.tcp.conn-34 rcvAck:vector ETV
attr interpolationmode sample-hold
vector 195 scenario.client2.tcp.conn-34 unacked:vector ETV
attr interpolationmode sample-hold
vector 196 scenario.client2.tcp.conn-34 cwnd:vector ETV
attr interpolationmode sample-hold
vector 197 scenario.client2.tcp.conn-34 ssthresh:vector ETV
attr interpolationmode sample-hold
vector 198 scenario.client2.tcp.conn-34 dupAcks:vector ETV
attr interpolationmode sample-hold
vector 199 scenario.client0.tcp.conn-33 rtt:vector ETV
attr interpolationmode sample-hold
vector 200 scenario.client0.tcp.conn-33 srtt:vector ETV
attr interpolationmode sample-hold
vector 201 scenario.client0.tcp.conn-33 rttvar:vector ETV
attr interpolationmode sample-hold
vector 202 scenario.client0.tcp.conn-33 rto:vector ETV
attr interpolationmode sample-hold
vector 203 scenario.client0.tcp.conn-33 cwnd:vector ETV
attr interpolationmode sample-hold
vector 204 scenario.client0.tcp.conn-33 ssthresh:vector ETV
attr interpolationmode sample-hold
vector 205 scenario.client0.tcp.conn-33 dupAcks:vector ETV
attr interpolationmode sample-hold
vector 206 scenario.client3.tcp.conn-35 tcpRcvQueueBytes:vector ETV
attr interpolationmode sample-hold
vector 207 scenario.client3.tcp.conn-35 rcvAdv:vector ETV
attr interpolationmode sample-hold
vector 208 scenario.client3.tcp.conn-35 rcvWnd:vector ETV
attr interpolationmode sample-hold
vector 209 scenario.client3.tcp.conn-35 sndAck:vector ETV
attr interpolationmode sample-hold
vector 210 scenario.client3.ppp[2].ppp rcvdPkFromHl:vector(packetBytes) ETV
attr interpolationmode none
attr source packetReceivedFromUpper
attr title "packets received from higher layer, vector(packetBytes)"
vector 211 scenario.client3.ppp[2].ppp.queue packetPushed:vector(packetBytes) ETV
attr interpolationmode none
attr title "packet pushed, vector(packetBytes)"
vector 212 scenario.client3.ppp[2].ppp.queue queueLength:vector ETV
attr interpolationmode sample-hold
attr source "count(packetPushed) - count(packetPopped) - count(packetRemoved) - count(packetDropped)"
attr title "queue length, vector"
vector 213 scenario.client3.ppp[2].ppp.queue packetPopped:vector(packetBytes) ETV
attr interpolationmode none
attr title "packet popped, vector(packetBytes)"
vector 214 scenario.client3.ppp[2].ppp.queue queueingTime:vector ETV
attr interpolationmode none
attr source queueingTime(packetPopped)
attr title "queueing times, vector"
attr unit s
vector 215 scenario.client3.ppp[2].ppp txPk:vector(packetBytes) ETV
attr interpolationmode none
attr source packetSentToLower
attr title "packets transmitted, vector(packetBytes)"
vector 216 scenario.client2.ppp[2].ppp rxPkOk:vector(packetBytes) ETV
attr interpolationmode none
attr source rxPkOk
attr title "packets received OK, vector(packetBytes)"
vector 217 scenario.client2.ppp[2].ppp passedUpPk:vector(packetBytes) ETV
attr interpolationmode none
attr source packetSentToUpper
attr title "packets passed to higher layer, vector(packetBytes)"
vector 218 scenario.client2.tcp.conn-36 rcvAdv:vector ETV
attr interpolationmode sample-hold
vector 219 scenario.client2.tcp.conn-36 sndWnd:vector ETV
attr interpolationmode sample-hold
vector 220 scenario.client2.tcp.conn-36 tcpRcvQueueBytes:vector ETV
attr interpolationmode sample-hold
vector 221 scenario.client2.tcp.conn-36 rcvWnd:vector ETV
attr interpolationmode sample-hold
vector 222 scenario.client2.tcp.conn-36 sndAck:vector ETV
attr interpolationmode sample-hold
vector 223 scenario.client2.ppp[2].ppp rcvdPkFromHl:vector(packetBytes) ETV
attr interpolationmode none
attr source packetReceivedFromUpper
attr title "packets received from higher layer, vector(packetBytes)"
vector 224 scenario.client2.ppp[2].ppp.queue packetPushed:vector(packetBytes) ETV
attr interpolationmode none
attr title "packet pushed, vector(packetBytes)"
vector 225 scenario.client2.ppp[2].ppp.queue queueLength:vector ETV
attr interpolationmode sample-hold
attr source "count(packetPushed) - count(packetPopped) - count(packetRemoved) - count(packetDropped)"
attr title "queue length, vector"
vector 226 scenario.client2.ppp[2].ppp.queue packetPopped:vector(packetBytes) ETV
attr interpolationmode none
attr title "packet popped, vector(packetBytes)"
vector 227 scenario.client2.ppp[2].ppp.queue queueingTime:vector ETV
attr interpolationmode none
attr source queueingTime(packetPopped)
attr title "queueing times, vector"
attr unit s
vector 228 scenario.client2.ppp[2].ppp txPk:vector(packetBytes) ETV
attr interpolationmode none
attr source packetSentToLower
attr title "packets transmitted, vector(packetBytes)"
vector 229 scenario.client3.ppp[2].ppp rxPkOk:vector(packetBytes) ETV
attr interpolationmode none
attr source rxPkOk
attr title "packets received OK, vector(packetBytes)"
vector 230 scenario.client3.ppp[2].ppp passedUpPk:vector(packetBytes) ETV
attr interpolationmode none
attr source packetSentToUpper
attr title "packets passed to higher layer, vector(packetBytes)"
vector 231 scenario.client3.tcp.conn-35 rcvSeq:vector ETV
attr interpolationmode sample-hold
vector 232 scenario.client3.tcp.conn-35 rcvAck:vector ETV
attr interpolationmode sample-hold
vector 233 scenario.client3.tcp.conn-35 sndWnd:vector ETV
attr interpolationmode sample-hold
vector 234 scenario.client3.tcp.conn-35 unacked:vector ETV
attr interpolationmode sample-hold
vector 235 scenario.client2.tcp.conn-36 rcvSeq:vector ETV
attr interpolationmode sample-hold
vector 236 scenario.client2.tcp.conn-36 rcvAck:vector ETV
attr interpolationmode sample-hold
vector 237 scenario.client2.tcp.conn-36 unacked:vector ETV
attr interpolationmode sample-hold
vector 238 scenario.client2.tcp.conn-36 cwnd:vector ETV
attr interpolationmode sample-hold
vector 239 scenario.client2.tcp.conn-36 ssthresh:vector ETV
attr interpolationmode sample-hold
vector 240 scenario.client2.tcp.conn-36 dupAcks:vector ETV
attr interpolationmode sample-hold
vector 241 scenario.client3.tcp.conn-35 rtt:vector ETV
attr interpolationmode sample-hold
vector 242 scenario.client3.tcp.conn-35 srtt:vector ETV
attr interpolationmode sample-hold
vector 243 scenario.client3.tcp.conn-35 rttvar:vector ETV
attr interpolationmode sample-hold
vector 244 scenario.client3.tcp.conn-35 rto:vector ETV
attr interpolationmode sample-hold
vector 245 scenario.client3.tcp.conn-35 cwnd:vector ETV
attr interpolationmode sample-hold
vector 246 scenario.client3.tcp.conn-35 ssthresh:vector ETV
attr interpolationmode sample-hold
vector 247 scenario.client3.tcp.conn-35 dupAcks:vector ETV
attr interpolationmode sample-hold
vector 248 scenario.client3.tcp.conn-37 tcpRcvQueueBytes:vector ETV
attr interpolationmode sample-hold
vector 249 scenario.client3.tcp.conn-37 rcvAdv:vector ETV
attr interpolationmode sample-hold
vector 250 scenario.client3.tcp.conn-37 rcvWnd:vector ETV
attr interpolationmode sample-hold
vector 251 scenario.client3.tcp.conn-37 sndAck:vector ETV
attr interpolationmode sample-hold
vector 252 scenario.client3.ppp[1].ppp rcvdPkFromHl:vector(packetBytes) ETV
attr interpolationmode none
attr source packetReceivedFromUpper
attr title "packets received from higher layer, vector(packetBytes)"
vector 253 scenario.client3.ppp[1].ppp.queue packetPushed:vector(packetBytes) ETV
attr interpolationmode none
attr title "packet pushed, vector(packetBytes)"
vector 254 scenario.client3.ppp[1].ppp.queue queueLength:vector ETV
attr interpolationmode sample-hold
attr source "count(packetPushed) - count(packetPopped) - count(packetRemoved) - count(packetDropped)"
attr title "queue length, vector"
vector 255 scenario.client3.ppp[1].ppp.queue packetPopped:vector(packetBytes) ETV
attr interpolationmode none
attr title "packet popped, vector(packetBytes)"
vector 256 scenario.client3.ppp[1].ppp.queue queueingTime:vector ETV
attr interpolationmode none
attr source queueingTime(packetPopped)
attr title "queueing times, vector"
attr unit s
vector 257 scenario.client3.ppp[1].ppp txPk:vector(packetBytes) ETV
attr interpolationmode none
attr source packetSentToLower
attr title "packets transmitted, vector(packetBytes)"
vector 258 scenario.client1.ppp[2].ppp rxPkOk:vector(packetBytes) ETV
attr interpolationmode none
attr source rxPkOk
attr title "packets received OK, vector(packetBytes)"
vector 259 scenario.client1.ppp[2].ppp passedUpPk:vector(packetBytes) ETV
attr interpolationmode none
attr source packetSentToUpper
attr title "packets passed to higher layer, vector(packetBytes)"
vector 260 scenario.client1.tcp.conn-38 rcvAdv:vector ETV
attr interpolationmode sample-hold
vector 261 scenario.client1.tcp.conn-38 sndWnd:vector ETV
attr interpolationmode sample-hold
vector 262 scenario.client1.tcp.conn-38 tcpRcvQueueBytes:vector ETV
attr interpolationmode sample-hold
vector 263 scenario.client1.tcp.conn-38 rcvWnd:vector ETV
attr interpolationmode sample-hold
vector 264 scenario.client1.tcp.conn-38 sndAck:vector ETV
attr interpolationmode sample-hold
vector 265 scenario.client1.ppp[2].ppp rcvdPkFromHl:vector(packetBytes) ETV
attr interpolationmode none
attr source packetReceivedFromUpper
attr title "packets received from higher layer, vector(packetBytes)"
vector 266 scenario.client1.ppp[2].ppp.queue packetPushed:vector(packetBytes) ETV
attr interpolationmode none
attr title "packet pushed, vector(packetBytes)"
vector 267 scenario.client1.ppp[2].ppp.queue queueLength:vector ETV
attr interpolationmode sample-hold
attr source "count(packetPushed) - count(packetPopped) - count(packetRemoved) - count(packetDropped)"
attr title "queue length, vector"
vector 268 scenario.client1.ppp[2].ppp.queue packetPopped:vector(packetBytes) ETV
attr interpolationmode none
attr title "packet popped, vector(packetBytes)"
vector 269 scenario.client1.ppp[2].ppp.queue queueingTime:vector ETV
attr interpolationmode none
attr source queueingTime(packetPopped)
attr title "queueing times, vector"
attr unit s
vector 270 scenario.client1.ppp[2].ppp txPk:vector(packetBytes) ETV
attr interpolationmode none
attr source packetSentToLower
attr title "packets transmitted, vector(packetBytes)"
vector 271 scenario.client3.ppp[1].ppp rxPkOk:vector(packetBytes) ETV
attr interpolationmode none
attr source rxPkOk
attr title "packets received OK, vector(packetBytes)"
vector 272 scenario.client3.ppp[1].ppp passedUpPk:vector(packetBytes) ETV
attr interpolationmode none
attr source packetSentToUpper
attr title "packets passed to higher layer, vector(packetBytes)"
vector 273 scenario.client3.tcp.conn-37 rcvSeq:vector ETV
attr interpolationmode sample-hold
vector 274 scenario.client3.tcp.conn-37 rcvAck:vector ETV
attr interpolationmode sample-hold
vector 275 scenario.client3.tcp.conn-37 sndWnd:vector ETV
attr interpolationmode sample-hold
vector 276 scenario.client3.tcp.conn-37 unacked:vector ETV
attr interpolationmode sample-hold
vector 277 scenario.client1.tcp.conn-38 rcvSeq:vector ETV
attr interpolationmode sample-hold
vector 278 scenario.client1.tcp.conn-38 rcvAck:vector ETV
attr interpolationmode sample-hold
vector 279 scenario.client1.tcp.conn-38 unacked:vector ETV
attr interpolationmode sample-hold
vector 280 scenario.client1.tcp.conn-38 cwnd:vector ETV
attr interpolationmode sample-hold
vector 281 scenario.client1.tcp.conn-38 ssthresh:vector ETV
attr interpolationmode sample-hold
vector 282 scenario.client1.tcp.conn-38 dupAcks:vector ETV
attr interpolationmode sample-hold
vector 283 scenario.client3.tcp.conn-37 rtt:vector ETV
attr interpolationmode sample-hold
vector 284 scenario.client3.tcp.conn-37 srtt:vector ETV
attr interpolationmode sample-hold
vector 285 scenario.client3.tcp.conn-37 rttvar:vector ETV
attr interpolationmode sample-hold
vector 286 scenario.client3.tcp.conn-37 rto:vector ETV
attr interpolationmode sample-hold
vector 287 scenario.client3.tcp.conn-37 cwnd:vector ETV
attr interpolationmode sample-hold
vector 288 scenario.client3.tcp.conn-37 ssthresh:vector ETV
attr interpolationmode sample-hold
vector 289 scenario.client3.tcp.conn-37 dupAcks:vector ETV
attr interpolationmode sample-hold
vector 290 scenario.client2.tcp.conn-39 tcpRcvQueueBytes:vector ETV
attr interpolationmode sample-hold
vector 291 scenario.client2.tcp.conn-39 rcvAdv:vector ETV
attr interpolationmode sample-hold
vector 292 scenario.client2.tcp.conn-39 rcvWnd:vector ETV
attr interpolationmode sample-hold
vector 293 scenario.client2.tcp.conn-39 sndAck:vector ETV
attr interpolationmode sample-hold
vector 294 scenario.client0.tcp.conn-40 rcvAdv:vector ETV
attr interpolationmode sample-hold
vector 295 scenario.client0.tcp.conn-40 sndWnd:vector ETV
attr interpolationmode sample-hold
vector 296 scenario.client0.tcp.conn-40 tcpRcvQueueBytes:vector ETV
attr interpolationmode sample-hold
vector 297 scenario.client0.tcp.conn-40 rcvWnd:vector ETV
attr interpolationmode sample-hold
vector 298 scenario.client0.tcp.conn-40 sndAck:vector ETV
attr interpolationmode sample-hold
vector 299 scenario.client2.tcp.conn-39 rcvSeq:vector ETV
attr interpolationmode sample-hold
vector 300 scenario.client2.tcp.conn-39 rcvAck:vector ETV
attr interpolationmode sample-hold
vector 301 scenario.client2.tcp.conn-39 sndWnd:vector ETV
attr interpolationmode sample-hold
vector 302 scenario.client2.tcp.conn-39 unacked:vector ETV
attr interpolationmode sample-hold
vector 303 scenario.client0.tcp.conn-40 rcvSeq:vector ETV
attr interpolationmode sample-hold
vector 304 scenario.client0.tcp.conn-40 rcvAck:vector ETV
attr interpolationmode sample-hold
vector 305 scenario.client0.tcp.conn-40 unacked:vector ETV
attr interpolationmode sample-hold
vector 306 scenario.client0.tcp.conn-40 cwnd:vector ETV
attr interpolationmode sample-hold
vector 307 scenario.client0.tcp.conn-40 ssthresh:vector ETV
attr interpolationmode sample-hold
vector 308 scenario.client0.tcp.conn-40 dupAcks:vector ETV
attr interpolationmode sample-hold
vector 309 scenario.client2.tcp.conn-39 rtt:vector ETV
attr interpolationmode sample-hold
vector 310 scenario.client2.tcp.conn-39 srtt:vector ETV
attr interpolationmode sample-hold
vector 311 scenario.client2.tcp.conn-39 rttvar:vector ETV
attr interpolationmode sample-hold
vector 312 scenario.client2.tcp.conn-39 rto:vector ETV
attr interpolationmode sample-hold
vector 313 scenario.client2.tcp.conn-39 cwnd:vector ETV
attr interpolationmode sample-hold
vector 314 scenario.client2.tcp.conn-39 ssthresh:vector ETV
attr interpolationmode sample-hold
vector 315 scenario.client2.tcp.conn-39 dupAcks:vector ETV
attr interpolationmode sample-hold
vector 316 scenario.client1.tcp.conn-41 tcpRcvQueueBytes:vector ETV
attr interpolationmode sample-hold
vector 317 scenario.client1.tcp.conn-41 rcvAdv:vector ETV
attr interpolationmode sample-hold
vector 318 scenario.client1.tcp.conn-41 rcvWnd:vector ETV
attr interpolationmode sample-hold
vector 319 scenario.client1.tcp.conn-41 sndAck:vector ETV
attr interpolationmode sample-hold
vector 320 scenario.client3.tcp.conn-42 rcvAdv:vector ETV
attr interpolationmode sample-hold
vector 321 scenario.client3.tcp.conn-42 sndWnd:vector ETV
attr interpolationmode sample-hold
vector 322 scenario.client3.tcp.conn-42 tcpRcvQueueBytes:vector ETV
attr interpolationmode sample-hold
vector 323 scenario.client3.tcp.conn-42 rcvWnd:vector ETV
attr interpolationmode sample-hold
vector 324 scenario.client3.tcp.conn-42 sndAck:vector ETV
attr interpolationmode sample-hold
vector 325 scenario.client1.tcp.conn-41 rcvSeq:vector ETV
attr interpolationmode sample-hold
vector 326 scenario.client1.tcp.conn-41 rcvAck:vector ETV
attr interpolationmode sample-hold
vector 327 scenario.client1.tcp.conn-41 sndWnd:vector ETV
attr interpolationmode sample-hold
vector 328 scenario.client1.tcp.conn-41 unacked:vector ETV
attr interpolationmode sample-hold
vector 329 scenario.client3.tcp.conn-42 rcvSeq:vector ETV
attr interpolationmode sample-hold
vector 330 scenario.client3.tcp.conn-42 rcvAck:vector ETV
attr interpolationmode sample-hold
vector 331 scenario.client3.tcp.conn-42 unacked:vector ETV
attr interpolationmode sample-hold
vector 332 scenario.client3.tcp.conn-42 cwnd:vector ETV
attr interpolationmode sample-hold
vector 333 scenario.client3.tcp.conn-42 ssthresh:vector ETV
attr interpolationmode sample-hold
vector 334 scenario.client3.tcp.conn-42 dupAcks:vector ETV
attr interpolationmode sample-hold
vector 335 scenario.client1.tcp.conn-41 rtt:vector ETV
attr interpolationmode sample-hold
vector 336 scenario.client1.tcp.conn-41 srtt:vector ETV
attr interpolationmode sample-hold
vector 337 scenario.client1.tcp.conn-41 rttvar:vector ETV
attr interpolationmode sample-hold
vector 338 scenario.client1.tcp.conn-41 rto:vector ETV
attr interpolationmode sample-hold
vector 339 scenario.client1.tcp.conn-41 cwnd:vector ETV
attr interpolationmode sample-hold
vector 340 scenario.client1.tcp.conn-41 ssthresh:vector ETV
attr interpolationmode sample-hold
vector 341 scenario.client1.tcp.conn-41 dupAcks:vector ETV
attr interpolationmode sample-hold
vector 342 scenario.client2.tcp.conn-43 tcpRcvQueueBytes:vector ETV
attr interpolationmode sample-hold
vector 343 scenario.client2.tcp.conn-43 rcvAdv:vector ETV
attr interpolationmode sample-hold
vector 344 scenario.client2.tcp.conn-43 rcvWnd:vector ETV
attr interpolationmode sample-hold
vector 345 scenario.client2.tcp.conn-43 sndAck:vector ETV
attr interpolationmode sample-hold
vector 346 scenario.client3.tcp.conn-44 rcvAdv:vector ETV
attr interpolationmode sample-hold
vector 347 scenario.client3.tcp.conn-44 sndWnd:vector ETV
attr interpolationmode sample-hold
vector 348 scenario.client3.tcp.conn-44 tcpRcvQueueBytes:vector ETV
attr interpolationmode sample-hold
vector 349 scenario.client3.tcp.conn-44 rcvWnd:vector ETV
attr interpolationmode sample-hold
vector 350 scenario.client3.tcp.conn-44 sndAck:vector ETV
attr interpolationmode sample-hold
vector 351 scenario.client2.tcp.conn-43 rcvSeq:vector ETV
attr interpolationmode sample-hold
vector 352 scenario.client2.tcp.conn-43 rcvAck:vector ETV
attr interpolationmode sample-hold
vector 353 scenario.client2.tcp.conn-43 sndWnd:vector ETV
attr interpolationmode sample-hold
vector 354 scenario.client2.tcp.conn-43 unacked:vector ETV
attr interpolationmode sample-hold
vector 355 scenario.client3.tcp.conn-44 rcvSeq:vector ETV
attr interpolationmode sample-hold
vector 356 scenario.client3.tcp.conn-44 rcvAck:vector ETV
attr interpolationmode sample-hold
vector 357 scenario.client3.tcp.conn-44 unacked:vector ETV
attr interpolationmode sample-hold
vector 358 scenario.client3.tcp.conn-44 cwnd:vector ETV
attr interpolationmode sample-hold
vector 359 scenario.client3.tcp.conn-44 ssthresh:vector ETV
attr interpolationmode sample-hold
vector 360 scenario.client3.tcp.conn-44 dupAcks:vector ETV
attr interpolationmode sample-hold
vector 361 scenario.client2.tcp.conn-43 rtt:vector ETV
attr interpolationmode sample-hold
vector 362 scenario.client2.tcp.conn-43 srtt:vector ETV
attr interpolationmode sample-hold
vector 363 scenario.client2.tcp.conn-43 rttvar:vector ETV
attr interpolationmode sample-hold
vector 364 scenario.client2.tcp.conn-43 rto:vector ETV
attr interpolationmode sample-hold
vector 365 scenario.client2.tcp.conn-43 cwnd:vector ETV
attr interpolationmode sample-hold
vector 366 scenario.client2.tcp.conn-43 ssthresh:vector ETV
attr interpolationmode sample-hold
vector 367 scenario.client2.tcp.conn-43 dupAcks:vector ETV
attr interpolationmode sample-hold
vector 368 scenario.client1.tcp.conn-45 tcpRcvQueueBytes:vector ETV
attr interpolationmode sample-hold
vector 369 scenario.client1.tcp.conn-45 rcvAdv:vector ETV
attr interpolationmode sample-hold
vector 370 scenario.client1.tcp.conn-45 rcvWnd:vector ETV
attr interpolationmode sample-hold
vector 371 scenario.client1.tcp.conn-45 sndAck:vector ETV
attr interpolationmode sample-hold
vector 372 scenario.client1.ppp[1].ppp rcvdPkFromHl:vector(packetBytes) ETV
attr interpolationmode none
attr source packetReceivedFromUpper
attr title "packets received from higher layer, vector(packetBytes)"
vector 373 scenario.client1.ppp[1].ppp.queue packetPushed:vector(packetBytes) ETV
attr interpolationmode none
attr title "packet pushed, vector(packetBytes)"
vector 374 scenario.client1.ppp[1].ppp.queue queueLength:vector ETV
attr interpolationmode sample-hold
attr source "count(packetPushed) - count(packetPopped) - count(packetRemoved) - count(packetDropped)"
attr title "queue length, vector"
vector 375 scenario.client1.ppp[1].ppp.queue packetPopped:vector(packetBytes) ETV
attr interpolationmode none
attr title "packet popped, vector(packetBytes)"
vector 376 scenario.client1.ppp[1].ppp.queue queueingTime:vector ETV
attr interpolationmode none
attr source queueingTime(packetPopped)
attr title "queueing times, vector"
attr unit s
vector 377 scenario.client1.ppp[1].ppp txPk:vector(packetBytes) ETV
attr interpolationmode none
attr source packetSentToLower
attr title "packets transmitted, vector(packetBytes)"
vector 378 scenario.client2.ppp[1].ppp rxPkOk:vector(packetBytes) ETV
attr interpolationmode none
attr source rxPkOk
attr title "packets received OK, vector(packetBytes)"
vector 379 scenario.client2.ppp[1].ppp passedUpPk:vector(packetBytes) ETV
attr interpolationmode none
attr source packetSentToUpper
attr title "packets passed to higher layer, vector(packetBytes)"
vector 380 scenario.client2.tcp.conn-46 rcvAdv:vector ETV
attr interpolationmode sample-hold
vector 381 scenario.client2.tcp.conn-46 sndWnd:vector ETV
attr interpolationmode sample-hold
vector 382 scenario.client2.tcp.conn-46 tcpRcvQueueBytes:vector ETV
attr interpolationmode sample-hold
vector 383 scenario.client2.tcp.conn-46 rcvWnd:vector ETV
attr interpolationmode sample-hold
vector 384 scenario.client2.tcp.conn-46 sndAck:vector ETV
attr interpolationmode sample-hold
vector 385 scenario.client2.ppp[1].ppp rcvdPkFromHl:vector(packetBytes) ETV
attr interpolationmode none
attr source packetReceivedFromUpper
attr title "packets received from higher layer, vector(packetBytes)"
vector 386 scenario.client2.ppp[1].ppp.queue packetPushed:vector(packetBytes) ETV
attr interpolationmode none
attr title "packet pushed, vector(packetBytes)"
vector 387 scenario.client2.ppp[1].ppp.queue queueLength:vector ETV
attr interpolationmode sample-hold
attr source "count(packetPushed) - count(packetPopped) - count(packetRemoved) - count(packetDropped)"
attr title "queue length, vector"
vector 388 scenario.client2.ppp[1].ppp.queue packetPopped:vector(packetBytes) ETV
attr interpolationmode none
attr title "packet popped, vector(packetBytes)"
vector 389 scenario.client2.ppp[1].ppp.queue queueingTime:vector ETV
attr interpolationmode none
attr source queueingTime(packetPopped)
attr title "queueing times, vector"
attr unit s
vector 390 scenario.client2.ppp[1].ppp txPk:vector(packetBytes) ETV
attr interpolationmode none
attr source packetSentToLower
attr title "packets transmitted, vector(packetBytes)"
vector 391 scenario.client1.ppp[1].ppp rxPkOk:vector(packetBytes) ETV
attr interpolationmode none
attr source rxPkOk
attr title "packets received OK, vector(packetBytes)"
vector 392 scenario.client1.ppp[1].ppp passedUpPk:vector(packetBytes) ETV
attr interpolationmode none
attr source packetSentToUpper
attr title "packets passed to higher layer, vector(packetBytes)"
vector 393 scenario.client1.tcp.conn-45 rcvSeq:vector ETV
attr interpolationmode sample-hold
vector 394 scenario.client1.tcp.conn-45 rcvAck:vector ETV
attr interpolationmode sample-hold
vector 395 scenario.client1.tcp.conn-45 sndWnd:vector ETV
attr interpolationmode sample-hold
vector 396 scenario.client1.tcp.conn-45 unacked:vector ETV
attr interpolationmode sample-hold
vector 397 scenario.client2.tcp.conn-46 rcvSeq:vector ETV
attr interpolationmode sample-hold
vector 398 scenario.client2.tcp.conn-46 rcvAck:vector ETV
attr interpolationmode sample-hold
vector 399 scenario.client2.tcp.conn-46 unacked:vector ETV
attr interpolationmode sample-hold
vector 400 scenario.client2.tcp.conn-46 cwnd:vector ETV
attr interpolationmode sample-hold
vector 401 scenario.client2.tcp.conn-46 ssthresh:vector ETV
attr interpolationmode sample-hold
vector 402 scenario.client2.tcp.conn-46 dupAcks:vector ETV
attr interpolationmode sample-hold
vector 403 scenario.client1.tcp.conn-45 rtt:vector ETV
attr interpolationmode sample-hold
vector 404 scenario.client1.tcp.conn-45 srtt:vector ETV
attr interpolationmode sample-hold
vector 405 scenario.client1.tcp.conn-45 rttvar:vector ETV
attr interpolationmode sample-hold
vector 406 scenario.client1.tcp.conn-45 rto:vector ETV
attr interpolationmode sample-hold
vector 407 scenario.client1.tcp.conn-45 cwnd:vector ETV
attr interpolationmode sample-hold
vector 408 scenario.client1.tcp.conn-45 ssthresh:vector ETV
attr interpolationmode sample-hold
vector 409 scenario.client1.tcp.conn-45 dupAcks:vector ETV
attr interpolationmode sample-hold
vector 410 scenario.client2.tcp.conn-47 tcpRcvQueueBytes:vector ETV
attr interpolationmode sample-hold
vector 411 scenario.client2.tcp.conn-47 rcvAdv:vector ETV
attr interpolationmode sample-hold
vector 412 scenario.client2.tcp.conn-47 rcvWnd:vector ETV
attr interpolationmode sample-hold
vector 413 scenario.client2.tcp.conn-47 sndAck:vector ETV
attr interpolationmode sample-hold
vector 414 scenario.client1.tcp.conn-48 rcvAdv:vector ETV
attr interpolationmode sample-hold
vector 415 scenario.client1.tcp.conn-48 sndWnd:vector ETV
attr interpolationmode sample-hold
vector 416 scenario.client1.tcp.conn-48 tcpRcvQueueBytes:vector ETV
attr interpolationmode sample-hold
vector 417 scenario.client1.tcp.conn-48 rcvWnd:vector ETV
attr interpolationmode sample-hold
vector 418 scenario.client1.tcp.conn-48 sndAck:vector ETV
attr interpolationmode sample-hold
vector 419 scenario.client2.tcp.conn-47 rcvSeq:vector ETV
attr interpolationmode sample-hold
vector 420 scenario.client2.tcp.conn-47 rcvAck:vector ETV
attr interpolationmode sample-hold
vector 421 scenario.client2.tcp.conn-47 sndWnd:vector ETV
attr interpolationmode sample-hold
vector 422 scenario.client2.tcp.conn-47 unacked:vector ETV
attr interpolationmode sample-hold
vector 423 scenario.client1.tcp.conn-48 rcvSeq:vector ETV
attr interpolationmode sample-hold
vector 424 scenario.client1.tcp.conn-48 rcvAck:vector ETV
attr interpolationmode sample-hold
vector 425 scenario.client1.tcp.conn-48 unacked:vector ETV
attr interpolationmode sample-hold
vector 426 scenario.client1.tcp.conn-48 cwnd:vector ETV
attr interpolationmode sample-hold
vector 427 scenario.client1.tcp.conn-48 ssthresh:vector ETV
attr interpolationmode sample-hold
vector 428 scenario.client1.tcp.conn-48 dupAcks:vector ETV
attr interpolationmode sample-hold
vector 429 scenario.client2.tcp.conn-47 rtt:vector ETV
attr interpolationmode sample-hold
vector 430 scenario.client2.tcp.conn-47 srtt:vector ETV
attr interpolationmode sample-hold
vector 431 scenario.client2.tcp.conn-47 rttvar:vector ETV
attr interpolationmode sample-hold
vector 432 scenario.client2.tcp.conn-47 rto:vector ETV
attr interpolationmode sample-hold
vector 433 scenario.client2.tcp.conn-47 cwnd:vector ETV
attr interpolationmode sample-hold
vector 434 scenario.client2.tcp.conn-47 ssthresh:vector ETV
attr interpolationmode sample-hold
vector 435 scenario.client2.tcp.conn-47 dupAcks:vector ETV
attr interpolationmode sample-hold
vector 436 scenario.client3.tcp.conn-49 tcpRcvQueueBytes:vector ETV
attr interpolationmode sample-hold
vector 437 scenario.client3.tcp.conn-49 rcvAdv:vector ETV
attr interpolationmode sample-hold
vector 438 scenario.client3.tcp.conn-49 rcvWnd:vector ETV
attr interpolationmode sample-hold
vector 439 scenario.client3.tcp.conn-49 sndAck:vector ETV
attr interpolationmode sample-hold
vector 440 scenario.client3.ppp[3].ppp rcvdPkFromHl:vector(packetBytes) ETV
attr interpolationmode none
attr source packetReceivedFromUpper
attr title "packets received from higher layer, vector(packetBytes)"
vector 441 scenario.client3.ppp[3].ppp.queue packetPushed:vector(packetBytes) ETV
attr interpolationmode none
attr title "packet pushed, vector(packetBytes)"
vector 442 scenario.client3.ppp[3].ppp.queue queueLength:vector ETV
attr interpolationmode sample-hold
attr source "count(packetPushed) - count(packetPopped) - count(packetRemoved) - count(packetDropped)"
attr title "queue length, vector"
vector 443 scenario.client3.ppp[3].ppp.queue packetPopped:vector(packetBytes) ETV
attr interpolationmode none
attr title "packet popped, vector(packetBytes)"
vector 444 scenario.client3.ppp[3].ppp.queue queueingTime:vector ETV
attr interpolationmode none
attr source queueingTime(packetPopped)
attr title "queueing times, vector"
attr unit s
vector 445 scenario.client3.ppp[3].ppp txPk:vector(packetBytes) ETV
attr interpolationmode none
attr source packetSentToLower
attr title "packets transmitted, vector(packetBytes)"
vector 446 scenario.client4.ppp[3].ppp rxPkOk:vector(packetBytes) ETV
attr interpolationmode none
attr source rxPkOk
attr title "packets received OK, vector(packetBytes)"
vector 447 scenario.client4.ppp[3].ppp passedUpPk:vector(packetBytes) ETV
attr interpolationmode none
attr source packetSentToUpper
attr title "packets passed to higher layer, vector(packetBytes)"
vector 448 scenario.client4.tcp.conn-4 rcvSeq:vector ETV
attr interpolationmode sample-hold
vector 449 scenario.client4.tcp.conn-4 rcvAck:vector ETV
attr interpolationmode sample-hold
vector 450 scenario.client4.tcp.conn-50 rcvAdv:vector ETV
attr interpolationmode sample-hold
vector 451 scenario.client4.tcp.conn-50 sndWnd:vector ETV
attr interpolationmode sample-hold
vector 452 scenario.client4.tcp.conn-50 tcpRcvQueueBytes:vector ETV
attr interpolationmode sample-hold
vector 453 scenario.client4.tcp.conn-50 rcvWnd:vector ETV
attr interpolationmode sample-hold
vector 454 scenario.client4.tcp.conn-50 sndAck:vector ETV
attr interpolationmode sample-hold
vector 455 scenario.client4.ppp[3].ppp rcvdPkFromHl:vector(packetBytes) ETV
attr interpolationmode none
attr source packetReceivedFromUpper
attr title "packets received from higher layer, vector(packetBytes)"
vector 456 scenario.client4.ppp[3].ppp.queue packetPushed:vector(packetBytes) ETV
attr interpolationmode none
attr title "packet pushed, vector(packetBytes)"
vector 457 scenario.client4.ppp[3].ppp.queue queueLength:vector ETV
attr interpolationmode sample-hold
attr source "count(packetPushed) - count(packetPopped) - count(packetRemoved) - count(packetDropped)"
attr title "queue length, vector"
vector 458 scenario.client4.ppp[3].ppp.queue packetPopped:vector(packetBytes) ETV
attr interpolationmode none
attr title "packet popped, vector(packetBytes)"
vector 459 scenario.client4.ppp[3].ppp.queue queueingTime:vector ETV
attr interpolationmode none
attr source queueingTime(packetPopped)
attr title "queueing times, vector"
attr unit s
vector 460 scenario.client4.ppp[3].ppp txPk:vector(packetBytes) ETV
attr interpolationmode none
attr source packetSentToLower
attr title "packets transmitted, vector(packetBytes)"
vector 461 scenario.client3.ppp[3].ppp rxPkOk:vector(packetBytes) ETV
attr interpolationmode none
attr source rxPkOk
attr title "packets received OK, vector(packetBytes)"
vector 462 scenario.client3.ppp[3].ppp passedUpPk:vector(packetBytes) ETV
attr interpolationmode none
attr source packetSentToUpper
attr title "packets passed to higher layer, vector(packetBytes)"
vector 463 scenario.client3.tcp.conn-49 rcvSeq:vector ETV
attr interpolationmode sample-hold
vector 464 scenario.client3.tcp.conn-49 rcvAck:vector ETV
attr interpolationmode sample-hold
vector 465 scenario.client3.tcp.conn-49 sndWnd:vector ETV
attr interpolationmode sample-hold
vector 466 scenario.client3.tcp.conn-49 unacked:vector ETV
attr interpolationmode sample-hold
vector 467 scenario.client4.tcp.conn-50 rcvSeq:vector ETV
attr interpolationmode sample-hold
vector 468 scenario.client4.tcp.conn-50 rcvAck:vector ETV
attr interpolationmode sample-hold
vector 469 scenario.client4.tcp.conn-50 unacked:vector ETV
attr interpolationmode sample-hold
vector 470 scenario.client4.tcp.conn-50 cwnd:vector ETV
attr interpolationmode sample-hold
vector 471 scenario.client4.tcp.conn-50 ssthresh:vector ETV
attr interpolationmode sample-hold
vector 472 scenario.client4.tcp.conn-50 dupAcks:vector ETV
attr interpolationmode sample-hold
vector 473 scenario.client3.tcp.conn-49 rtt:vector ETV
attr interpolationmode sample-hold
vector 474 scenario.client3.tcp.conn-49 srtt:vector ETV
attr interpolationmode sample-hold
vector 475 scenario.client3.tcp.conn-49 rttvar:vector ETV
attr interpolationmode sample-hold
vector 476 scenario.client3.tcp.conn-49 rto:vector ETV
attr interpolationmode sample-hold
vector 477 scenario.client3.tcp.conn-49 cwnd:vector ETV
attr interpolationmode sample-hold
vector 478 scenario.client3.tcp.conn-49 ssthresh:vector ETV
attr interpolationmode sample-hold
vector 479 scenario.client3.tcp.conn-49 dupAcks:vector ETV
attr interpolationmode sample-hold
vector 480 scenario.client2.tcp.conn-51 tcpRcvQueueBytes:vector ETV
attr interpolationmode sample-hold
vector 481 scenario.client2.tcp.conn-51 rcvAdv:vector ETV
attr interpolationmode sample-hold
vector 482 scenario.client2.tcp.conn-51 rcvWnd:vector ETV
attr interpolationmode sample-hold
vector 483 scenario.client2.tcp.conn-51 sndAck:vector ETV
attr interpolationmode sample-hold
vector 484 scenario.client2.ppp[3].ppp rcvdPkFromHl:vector(packetBytes) ETV
attr interpolationmode none
attr source packetReceivedFromUpper
attr title "packets received from higher layer, vector(packetBytes)"
vector 485 scenario.client2.ppp[3].ppp.queue packetPushed:vector(packetBytes) ETV
attr interpolationmode none
attr title "packet pushed, vector(packetBytes)"
vector 486 scenario.client2.ppp[3].ppp.queue queueLength:vector ETV
attr interpolationmode sample-hold
attr source "count(packetPushed) - count(packetPopped) - count(packetRemoved) - count(packetDropped)"
attr title "queue length, vector"
vector 487 scenario.client2.ppp[3].ppp.queue packetPopped:vector(packetBytes) ETV
attr interpolationmode none
attr title "packet popped, vector(packetBytes)"
vector 488 scenario.client2.ppp[3].ppp.queue queueingTime:vector ETV
attr interpolationmode none
attr source queueingTime(packetPopped)
attr title "queueing times, vector"
attr unit s
vector 489 scenario.client2.ppp[3].ppp txPk:vector(packetBytes) ETV
attr interpolationmode none
attr source packetSentToLower
attr title "packets transmitted, vector(packetBytes)"
vector 490 scenario.client1.tcp.conn-52 tcpRcvQueueBytes:vector ETV
attr interpolationmode sample-hold
vector 491 scenario.client1.tcp.conn-52 rcvAdv:vector ETV
attr interpolationmode sample-hold
vector 492 scenario.client1.tcp.conn-52 rcvWnd:vector ETV
attr interpolationmode sample-hold
vector 493 scenario.client1.tcp.conn-52 sndAck:vector ETV
attr interpolationmode sample-hold
vector 494 scenario.client1.ppp[3].ppp rcvdPkFromHl:vector(packetBytes) ETV
attr interpolationmode none
attr source packetReceivedFromUpper
attr title "packets received from higher layer, vector(packetBytes)"
vector 495 scenario.client1.ppp[3].ppp.queue packetPushed:vector(packetBytes) ETV
attr interpolationmode none
attr title "packet pushed, vector(packetBytes)"
vector 496 scenario.client1.ppp[3].ppp.queue queueLength:vector ETV
attr interpolationmode sample-hold
attr source "count(packetPushed) - count(packetPopped) - count(packetRemoved) - count(packetDropped)"
attr title "queue length, vector"
vector 497 scenario.client1.ppp[3].ppp.queue packetPopped:vector(packetBytes) ETV
attr interpolationmode none
attr title "packet popped, vector(packetBytes)"
vector 498 scenario.client1.ppp[3].ppp.queue queueingTime:vector ETV
attr interpolationmode none
attr source queueingTime(packetPopped)
attr title "queueing times, vector"
attr unit s
vector 499 scenario.client1.ppp[3].ppp txPk:vector(packetBytes) ETV
attr interpolationmode none
attr source packetSentToLower
attr title "packets transmitted, vector(packetBytes)"
vector 500 scenario.client4.ppp[2].ppp rxPkOk:vector(packetBytes) ETV
attr interpolationmode none
attr source rxPkOk
attr title "packets received OK, vector(packetBytes)"
vector 501 scenario.client4.ppp[2].ppp passedUpPk:vector(packetBytes) ETV
attr interpolationmode none
attr source packetSentToUpper
attr title "packets passed to higher layer, vector(packetBytes)"
vector 502 scenario.client4.tcp.conn-53 rcvAdv:vector ETV
attr interpolationmode sample-hold
vector 503 scenario.client4.tcp.conn-53 sndWnd:vector ETV
attr interpolationmode sample-hold
vector 504 scenario.client4.tcp.conn-53 tcpRcvQueueBytes:vector ETV
attr interpolationmode sample-hold
vector 505 scenario.client4.tcp.conn-53 rcvWnd:vector ETV
attr interpolationmode sample-hold
vector 506 scenario.client4.tcp.conn-53 sndAck:vector ETV
attr interpolationmode sample-hold
vector 507 scenario.client4.ppp[2].ppp rcvdPkFromHl:vector(packetBytes) ETV
attr interpolationmode none
attr source packetReceivedFromUpper
attr title "packets received from higher layer, vector(packetBytes)"
vector 508 scenario.client4.ppp[2].ppp.queue packetPushed:vector(packetBytes) ETV
attr interpolationmode none
attr title "packet pushed, vector(packetBytes)"
vector 509 scenario.client4.ppp[2].ppp.queue queueLength:vector ETV
attr interpolationmode sample-hold
attr source "count(packetPushed) - count(packetPopped) - count(packetRemoved) - count(packetDropped)"
attr title "queue length, vector"
vector 510 scenario.client4.ppp[2].ppp.queue packetPopped:vector(packetBytes) ETV
attr interpolationmode none
attr title "packet popped, vector(packetBytes)"
vector 511 scenario.client4.ppp[2].ppp.queue queueingTime:vector ETV
attr interpolationmode none
attr source queueingTime(packetPopped)
attr title "queueing times, vector"
attr unit s
vector 512 scenario.client4.ppp[2].ppp txPk:vector(packetBytes) ETV
attr interpolationmode none
attr source packetSentToLower
attr title "packets transmitted, vector(packetBytes)"
vector 513 scenario.client4.ppp[1].ppp rxPkOk:vector(packetBytes) ETV
attr interpolationmode none
attr source rxPkOk
attr title "packets received OK, vector(packetBytes)"
vector 514 scenario.client4.ppp[1].ppp passedUpPk:vector(packetBytes) ETV
attr interpolationmode none
attr source packetSentToUpper
attr title "packets passed to higher layer, vector(packetBytes)"
vector 515 scenario.client4.tcp.conn-54 rcvAdv:vector ETV
attr interpolationmode sample-hold
vector 516 scenario.client4.tcp.conn-54 sndWnd:vector ETV
attr interpolationmode sample-hold
vector 517 scenario.client4.tcp.conn-54 tcpRcvQueueBytes:vector ETV
attr interpolationmode sample-hold
vector 518 scenario.client4.tcp.conn-54 rcvWnd:vector ETV
attr interpolationmode sample-hold
vector 519 scenario.client4.tcp.conn-54 sndAck:vector ETV
attr interpolationmode sample-hold
vector 520 scenario.client4.ppp[1].ppp rcvdPkFromHl:vector(packetBytes) ETV
attr interpolationmode none
attr source packetReceivedFromUpper
attr title "packets received from higher layer, vector(packetBytes)"
vector 521 scenario.client4.ppp[1].ppp.queue packetPushed:vector(packetBytes) ETV
attr interpolationmode none
attr title "packet pushed, vector(packetBytes)"
vector 522 scenario.client4.ppp[1].ppp.queue queueLength:vector ETV
attr interpolationmode sample-hold
attr source "count(packetPushed) - count(packetPopped) - count(packetRemoved) - count(packetDropped)"
attr title "queue length, vector"
vector 523 scenario.client4.ppp[1].ppp.queue packetPopped:vector(packetBytes) ETV
attr interpolationmode none
attr title "packet popped, vector(packetBytes)"
vector 524 scenario.client4.ppp[1].ppp.queue queueingTime:vector ETV
attr interpolationmode none
attr source queueingTime(packetPopped)
attr title "queueing times, vector"
attr unit s
vector 525 scenario.client4.ppp[1].ppp txPk:vector(packetBytes) ETV
attr interpolationmode none
attr source packetSentToLower
attr title "packets transmitted, vector(packetBytes)"
vector 526 scenario.client2.ppp[3].ppp rxPkOk:vector(packetBytes) ETV
attr interpolationmode none
attr source rxPkOk
attr title "packets received OK, vector(packetBytes)"
vector 527 scenario.client2.ppp[3].ppp passedUpPk:vector(packetBytes) ETV
attr interpolationmode none
attr source packetSentToUpper
attr title "packets passed to higher layer, vector(packetBytes)"
vector 528 scenario.client2.tcp.conn-51 rcvSeq:vector ETV
attr interpolationmode sample-hold
vector 529 scenario.client2.tcp.conn-51 rcvAck:vector ETV
attr interpolationmode sample-hold
vector 530 scenario.client2.tcp.conn-51 sndWnd:vector ETV
attr interpolationmode sample-hold
vector 531 scenario.client2.tcp.conn-51 unacked:vector ETV
attr interpolationmode sample-hold
vector 532 scenario.client1.ppp[3].ppp rxPkOk:vector(packetBytes) ETV
attr interpolationmode none
attr source rxPkOk
attr title "packets received OK, vector(packetBytes)"
vector 533 scenario.client1.ppp[3].ppp passedUpPk:vector(packetBytes) ETV
attr interpolationmode none
attr source packetSentToUpper
attr title "packets passed to higher layer, vector(packetBytes)"
vector 534 scenario.client1.tcp.conn-52 rcvSeq:vector ETV
attr interpolationmode sample-hold
vector 535 scenario.client1.tcp.conn-52 rcvAck:vector ETV
attr interpolationmode sample-hold
vector 536 scenario.client1.tcp.conn-52 sndWnd:vector ETV
attr interpolationmode sample-hold
vector 537 scenario.client1.tcp.conn-52 unacked:vector ETV
attr interpolationmode sample-hold
vector 538 scenario.client4.tcp.conn-53 rcvSeq:vector ETV
attr interpolationmode sample-hold
vector 539 scenario.client4.tcp.conn-53 rcvAck:vector ETV
attr interpolationmode sample-hold
vector 540 scenario.client4.tcp.conn-53 unacked:vector ETV
attr interpolationmode sample-hold
vector 541 scenario.client4.tcp.conn-53 cwnd:vector ETV
attr interpolationmode sample-hold
vector 542 scenario.client4.tcp.conn-53 ssthresh:vector ETV
attr interpolationmode sample-hold
vector 543 scenario.client4.tcp.conn-53 dupAcks:vector ETV
attr interpolationmode sample-hold
vector 544 scenario.client4.tcp.conn-54 rcvSeq:vector ETV
attr interpolationmode sample-hold
vector 545 scenario.client4.tcp.conn-54 rcvAck:vector ETV
attr interpolationmode sample-hold
vector 546 scenario.client4.tcp.conn-54 unacked:vector ETV
attr interpolationmode sample-hold
vector 547 scenario.client4.tcp.conn-54 cwnd:vector ETV
attr interpolationmode sample-hold
vector 548 scenario.client4.tcp.conn-54 ssthresh:vector ETV
attr interpolationmode sample-hold
vector 549 scenario.client4.tcp.conn-54 dupAcks:vector ETV
attr interpolationmode sample-hold
vector 550 scenario.client2.tcp.conn-51 rtt:vector ETV
attr interpolationmode sample-hold
vector 551 scenario.client2.tcp.conn-51 srtt:vector ETV
attr interpolationmode sample-hold
vector 552 scenario.client2.tcp.conn-51 rttvar:vector ETV
attr interpolationmode sample-hold
vector 553 scenario.client2.tcp.conn-51 rto:vector ETV
attr interpolationmode sample-hold
vector 554 scenario.client2.tcp.conn-51 cwnd:vector ETV
attr interpolationmode sample-hold
vector 555 scenario.client2.tcp.conn-51 ssthresh:vector ETV
attr interpolationmode sample-hold
vector 556 scenario.client2.tcp.conn-51 dupAcks:vector ETV
attr interpolationmode sample-hold
vector 557 scenario.client1.tcp.conn-52 rtt:vector ETV
attr interpolationmode sample-hold
vector 558 scenario.client1.tcp.conn-52 srtt:vector ETV
attr interpolationmode sample-hold
vector 559 scenario.client1.tcp.conn-52 rttvar:vector ETV
attr interpolationmode sample-hold
vector 560 scenario.client1.tcp.conn-52 rto:vector ETV
attr interpolationmode sample-hold
vector 561 scenario.client1.tcp.conn-52 cwnd:vector ETV
attr interpolationmode sample-hold
vector 562 scenario.client1.tcp.conn-52 ssthresh:vector ETV
attr interpolationmode sample-hold
vector 563 scenario.client1.tcp.conn-52 dupAcks:vector ETV
attr interpolationmode sample-hold
0	70950 863 0 1225 0 5.60644796936 37 0 1 18 18
1	71813 935 0 1247 0 5.647269587938 39 0 1 19 19
2	72748 438 0 1270 0 5.735175042329 19 0 1 9 9
3	73186 9 0 0 0 0 1 0 0 0 0
4	73195 863 0 1232 0 5.60732396936 37 0 1 18 18
5	74058 735 0 1262 0 5.700646461012 31 0 1 15 15
6	74793 397 0 1165 0 5.410062397656 17 0 1 8 8
7	75190 105 0 922 0 4.780801844538 5 0 1 2 2
8	75295 935 0 1240 0 5.646393587938 39 0 1 19 19
9	76230 733 0 1255 0 5.699770461012 31 0 1 15 15
10	76963 410 0 1195 0 5.478755415386 17 0 1 8 8
11	77373 110 0 921 0 4.780425844538 5 0 1 2 2
12	77483 456 0 1277 0 5.736051042329 19 0 1 9 9
13	77939 414 0 1172 0 5.410938397656 17 0 1 8 8
14	78353 410 0 1202 0 5.479631415386 17 0 1 8 8
15	78763 110 0 799 0 4.765966738608 5 0 1 2 2
16	78873 10 0 0 0 0 1 0 0 0 0
17	78883 110 0 942 0 4.781677844538 5 0 1 2 2
18	78993 110 0 933 0 4.781301844538 5 0 1 2 2
19	79103 110 0 809 0 4.766842738608 5 0 1 2 2
20	79213 248 9 1222 0.155827509384 5.60606396936 10 0 0 0 0
21	79461 315 9 1222 0.155827509384 5.60606396936 11 7504 46688 474384 21854003456
22	79776 278 9 1222 0.155827509384 5.60606396936 10 7504 7504 75040 563100160
23	80054 284 9 1222 0.155827509384 5.60606396936 10 0 39184 352656 13818472704
24	80338 463 12 1224 0.155827509384 5.60606396936 18 40 44 738 30284
25	80801 463 12 1224 0.155827509384 5.60606396936 18 40 44 738 30284
26	81264 890 12 1224 0.155827509384 5.60606396936 36 0 1 18 18
27	82154 463 12 1224 0.155827509384 5.60606396936 18 40 44 738 30284
28	82617 452 12 1224 0.155827509384 5.60606396936 18 0 0.000376 0.000376 1.41376e-007
29	83069 463 12 1224 0.155827509384 5.60606396936 18 47 51 864 41498
30	83532 463 14 1226 0.156735509384 5.60694796936 18 47 51 864 41498
31	83995 463 14 1226 0.156735509384 5.60694796936 18 40 44 738 30284
32	84458 88 16 403 0.156735509384 3.586191974731 3 38956 896320 1184932 867235230672
33	84546 74 16 403 0.156735509384 3.586191974731 3 0 0 0 0
34	84620 317 16 1228 0.156735509384 5.60694796936 11 46461 46471 511118 23749237400
35	84937 54 16 29 0.156735509384 0.158527509384 2 7504 7504 15008 112620032
36	84991 474 16 1228 0.156735509384 5.60694796936 19 0 1 1 1
37	85465 279 16 1228 0.156735509384 5.60694796936 10 7503 7504 75039 563085153
38	85744 289 16 1228 0.156735509384 5.60694796936 10 38957 38967 389618 15180218698
39	86033 463 18 1231 0.156735509384 5.60694796936 18 40 44 736 30122
40	86496 463 18 1231 0.156735509384 5.60694796936 18 40 44 736 30122
41	86959 890 18 1231 0.156735509384 5.60694796936 36 0 1 18 18
42	87849 463 18 1231 0.156735509384 5.60694796936 18 40 44 736 30122
43	88312 452 18 1231 0.156735509384 5.60694796936 18 0 0.000376 0.000376 1.41376e-007
44	88764 463 18 1231 0.156735509384 5.60694796936 18 47 51 862 41308
45	89227 463 20 1233 0.157643509384 5.60782396936 18 47 51 862 41308
46	89690 463 20 1233 0.157643509384 5.60782396936 18 40 44 736 30122
47	90153 289 22 1235 0.157643509384 5.60782396936 10 39183 39184 391839 15353780193
48	90442 289 22 1235 0.157643509384 5.60782396936 10 38957 38967 389618 15180218698
49	90731 279 22 1235 0.157643509384 5.60782396936 10 7503 7504 75039 563085153
50	91010 450 22 1235 0.157643509384 5.60782396936 18 0 2 10 12
51	91460 261 29 1228 0.158527509384 5.60694796936 9 38957 38966 350651 13661791609
52	91721 261 29 1228 0.158527509384 5.60694796936 9 39184 39184 352656 13818472704
53	91982 24 29 29 0.158527509384 0.158527509384 1 0 0 0 0
54	92006 27 29 29 0.158527509384 0.158527509384 1 1072 1072 1072 1149184
55	92033 33 29 29 0.158527509384 0.158527509384 1 4294967295 4294967295 4294967295 1.844674406512e+019
56	92066 225 29 1228 0.158527509384 5.60694796936 9 0 0 0 0
57	92291 280 39 1235 0.159403509384 5.60782396936 9 0.00176 0.002144 0.016224 2.9377536e-005
58	92571 325 39 1235 0.159403509384 5.60782396936 9 0.00022 0.00126759227 0.007350854116 7.0501170919531e-006
59	92896 330 39 1235 0.159403509384 5.60782396936 9 0.226199946652 0.65647 3.676741111605 1.6752399617342
60	93226 313 39 1235 0.159403509384 5.60782396936 9 1 2.6261 14.808247921658 27.00350982076
61	93539 252 39 1235 0.159403509384 5.60782396936 9 1072 4824 24656 82741248
62	93791 306 39 1235 0.159403509384 5.60782396936 9 4294967295 4294967295 38654705655 1.6602069658608e+020
63	94097 225 39 1235 0.159403509384 5.60782396936 9 0 0 0 0
64	94322 196 41 980 0.28166969512 4.923576468398 8 0 0 0 0
65	94518 254 41 980 0.28166969512 4.923576468398 9 7504 78149 632696 48914439624
66	94772 220 41 980 0.28166969512 4.923576468398 8 7504 7504 60032 450480128
67	94992 224 41 980 0.28166969512 4.923576468398 8 0 70645 494515 34935012175
68	95216 85 48 240 0.28257769512 1.027229326335 3 70417 256580 410793 77813619905
69	95301 72 48 240 0.28257769512 1.027229326335 3 0 0 0 0
70	95373 255 48 986 0.28257769512 4.924460468398 9 77922 77930 701328 54651218254
71	95628 52 48 61 0.28257769512 0.28436969512 2 7504 7504 15008 112620032
72	95680 369 48 986 0.28257769512 4.924460468398 15 0 1 1 1
73	96049 220 48 986 0.28257769512 4.924460468398 8 7503 7504 60031 450465121
74	96269 228 48 986 0.28257769512 4.924460468398 8 70418 70426 563375 39673923887
75	96497 228 54 993 0.28348569512 4.925336468398 8 70644 70645 565159 39925586911
76	96725 228 54 993 0.28348569512 4.925336468398 8 70418 70426 563375 39673923887
77	96953 220 54 993 0.28348569512 4.925336468398 8 7503 7504 60031 450465121
78	97173 346 54 993 0.28348569512 4.925336468398 14 0 2 8 10
79	97519 201 61 986 0.28436969512 4.924460468398 7 70418 70425 492949 34714102411
80	97720 201 61 986 0.28436969512 4.924460468398 7 70645 70645 494515 34935012175
81	97921 23 61 61 0.28436969512 0.28436969512 1 0 0 0 0
82	97944 26 61 61 0.28436969512 0.28436969512 1 1072 1072 1072 1149184
83	97970 32 61 61 0.28436969512 0.28436969512 1 4294967295 4294967295 4294967295 1.844674406512e+019
84	98002 173 61 986 0.28436969512 4.924460468398 7 0 0 0 0
85	98175 216 71 993 0.28524569512 4.925336468398 7 0.00176 0.002144 0.012704 2.3182336e-005
86	98391 248 71 993 0.28524569512 4.925336468398 7 0.00022 0.00110560521 0.004964763537 4.152777742325e-006
87	98639 252 71 993 0.28524569512 4.925336468398 7 0.295239322625 0.65647 3.192169583307 1.5573339357842
88	98891 248 71 993 0.28524569512 4.925336468398 7 1.18206289571 2.6261 12.773643096765 24.933434655642
89	99139 194 71 993 0.28524569512 4.925336468398 7 1072 3752 15544 41083328
90	99333 236 71 993 0.28524569512 4.925336468398 7 4294967295 4294967295 30064771065 1.2912720845584e+020
91	99569 173 71 993 0.28524569512 4.925336468398 7 0 0 0 0
92	99742 71 73 965 0.335184789575 4.8582058211 3 0 0 0 0
93	99813 110 73 965 0.335184789575 4.8582058211 4 7504 91528 282088 25188434368
94	99923 80 73 965 0.335184789575 4.8582058211 3 7504 7504 22512 168930048
95	100003 79 73 965 0.335184789575 4.8582058211 3 0 84024 168048 14120065152
96	100082 232 76 1276 0.335184789575 5.735675042329 9 40 44 370 15234
97	100314 232 76 1276 0.335184789575 5.735675042329 9 40 44 370 15234
98	100546 446 76 1276 0.335184789575 5.735675042329 18 0 1 9 9
99	100992 232 76 1276 0.335184789575 5.735675042329 9 40 44 370 15234
100	101224 232 76 1276 0.335184789575 5.735675042329 9 0 0 0 0
101	101456 241 76 1276 0.335184789575 5.735675042329 9 47 51 433 20855
102	101697 241 78 1278 0.336092789575 5.736551042329 9 47 51 433 20855
103	101938 241 78 1278 0.336092789575 5.736551042329 9 40 44 370 15234
104	102179 115 80 971 0.336092789575 4.8590898211 4 91301 91303 365206 33343855612
105	102294 56 80 93 0.336092789575 0.337884789575 2 7504 7504 15008 112620032
106	102350 123 80 971 0.336092789575 4.8590898211 5 0 1 1 1
107	102473 83 80 971 0.336092789575 4.8590898211 3 7503 7504 22511 168915041
108	102556 86 80 971 0.336092789575 4.8590898211 3 83797 83799 251394 21066314414
109	102642 241 82 1269 0.336092789575 5.734791042329 9 40 44 374 15560
110	102883 241 82 1269 0.336092789575 5.734791042329 9 40 44 374 15560
111	103124 464 82 1269 0.336092789575 5.734791042329 18 0 1 9 9
112	103588 241 82 1269 0.336092789575 5.734791042329 9 40 44 374 15560
113	103829 232 82 1269 0.336092789575 5.734791042329 9 0 0 0 0
114	104061 241 82 1269 0.336092789575 5.734791042329 9 47 51 437 21237
115	104302 242 84 1271 0.337000789575 5.735675042329 9 47 51 437 21237
116	104544 242 84 1271 0.337000789575 5.735675042329 9 40 44 374 15560
117	104786 87 86 978 0.337000789575 4.8599658211 3 84023 84024 252071 21179929681
118	104873 87 86 978 0.337000789575 4.8599658211 3 83797 83799 251394 21066314414
119	104960 84 86 978 0.337000789575 4.8599658211 3 7503 7504 22511 168915041
120	105044 99 86 978 0.337000789575 4.8599658211 4 0 1 2 2
121	105143 57 93 971 0.337884789575 4.8590898211 2 83797 83798 167595 14044042013
122	105200 57 93 971 0.337884789575 4.8590898211 2 84024 84024 168048 14120065152
123	105257 25 93 93 0.337884789575 0.337884789575 1 0 0 0 0
124	105282 28 93 93 0.337884789575 0.337884789575 1 1072 1072 1072 1149184
125	105310 34 93 93 0.337884789575 0.337884789575 1 4294967295 4294967295 4294967295 1.844674406512e+019
126	105344 49 93 971 0.337884789575 4.8590898211 2 0 0 0 0
127	105393 62 103 978 0.338760789575 4.8599658211 2 0.00176 0.00176 0.00352 6.1952e-006
128	105455 64 103 978 0.338760789575 4.8599658211 2 0.00022 0.0004125 0.0006325 2.1855625e-007
129	105519 65 103 978 0.338760789575 4.8599658211 2 0.57460375 0.65647 1.23107375 0.76112233041406
130	105584 63 103 978 0.338760789575 4.8599658211 2 2.2988275 2.6261 4.9249275 12.181009084756
131	105647 56 103 978 0.338760789575 4.8599658211 2 1072 1072 2144 2298368
132	105703 68 103 978 0.338760789575 4.8599658211 2 4294967295 4294967295 8589934590 3.6893488130239e+019
133	105771 50 103 978 0.338760789575 4.8599658211 2 0 0 0 0
134	105821 158 105 1267 0.574342200995 5.734791042329 6 0 0 0 0
135	105979 217 105 1267 0.574342200995 5.734791042329 7 7504 151317 915406 137437316950
136	106196 176 105 1267 0.574342200995 5.734791042329 6 7504 7504 45024 337860096
137	106372 183 105 1267 0.574342200995 5.734791042329 6 0 143813 719065 103410894845
138	106555 93 112 304 0.575250200995 1.592218492264 3 143585 397827 847462 272549576654
139	106648 78 112 304 0.575250200995 1.592218492264 3 0 0 0 0
140	106726 219 112 1273 0.575250200995 5.735675042329 7 151090 151096 1057647 159802453841
141	106945 58 112 125 0.575250200995 0.577042200995 2 7504 7504 15008 112620032
142	107003 290 112 1273 0.575250200995 5.735675042329 11 0 1 1 1
143	107293 176 112 1273 0.575250200995 5.735675042329 6 7503 7504 45023 337845089
[...]
315	144501 211 263 1250 1.029897326335 5.647769587938 8 0 0 0 0
316	144712 132 265 1162 1.224203341777 5.409678397656 5 0 0 0 0
317	144844 186 265 1162 1.224203341777 5.409678397656 6 7504 313782 1576414 492352027636
318	145030 147 265 1162 1.224203341777 5.409678397656 5 7504 7504 37520 281550080
319	145177 152 265 1162 1.224203341777 5.409678397656 5 0 306278 1225112 375224853136
320	145329 188 272 1168 1.225111341777 5.410562397656 6 313555 313560 1881342 589907953520
321	145517 58 272 285 1.225111341777 1.226903341777 2 7504 7504 15008 112620032
322	145575 238 272 1168 1.225111341777 5.410562397656 9 0 1 1 1
323	145813 147 272 1168 1.225111341777 5.410562397656 5 7503 7504 37519 281535073
324	145960 157 272 1168 1.225111341777 5.410562397656 5 306051 306056 1530268 468344030382
325	146117 157 278 1175 1.226019341777 5.411438397656 5 306277 306278 1531389 469030453865
326	146274 157 278 1175 1.226019341777 5.411438397656 5 306051 306056 1530268 468344030382
327	146431 147 278 1175 1.226019341777 5.411438397656 5 7503 7504 37519 281535073
328	146578 212 278 1175 1.226019341777 5.411438397656 8 0 2 5 7
329	146790 126 285 1168 1.226903341777 5.410562397656 4 306051 306055 1224212 374673755246
330	146916 126 285 1168 1.226903341777 5.410562397656 4 306278 306278 1225112 375224853136
331	147042 26 285 285 1.226903341777 1.226903341777 1 0 0 0 0
332	147068 29 285 285 1.226903341777 1.226903341777 1 1072 1072 1072 1149184
333	147097 35 285 285 1.226903341777 1.226903341777 1 4294967295 4294967295 4294967295 1.844674406512e+019
334	147132 106 285 1168 1.226903341777 5.410562397656 4 0 0 0 0
335	147238 131 295 1175 1.227779341777 5.411438397656 4 0.00176 0.001768 0.007048 1.2418624e-005
336	147369 144 295 1175 1.227779341777 5.411438397656 4 0.00022 0.000729085938 0.001944398438 1.0894543401456e-006
337	147513 146 295 1175 1.227779341777 5.411438397656 4 0.440226308594 0.65647 2.174248527344 1.2078788387229
338	147659 143 295 1175 1.227779341777 5.411438397656 4 1.761634320314 2.6261 8.698938507814 19.334027360216
339	147802 118 295 1175 1.227779341777 5.411438397656 4 1072 2144 5896 9480768
340	147920 142 295 1175 1.227779341777 5.411438397656 4 4294967295 4294967295 17179869180 7.3786976260478e+019
341	148062 106 295 1175 1.227779341777 5.411438397656 4 0 0 0 0
342	148168 132 297 1192 1.591310492264 5.478371415386 5 0 0 0 0
343	148300 186 297 1192 1.591310492264 5.478371415386 6 7504 405559 2035299 822446822421
344	148486 147 297 1192 1.591310492264 5.478371415386 5 7504 7504 37520 281550080
345	148633 152 297 1192 1.591310492264 5.478371415386 5 0 398055 1592220 633791132100
346	148785 188 304 1198 1.592218492264 5.479255415386 6 405332 405337 2432004 985773909362
347	148973 58 304 317 1.592218492264 1.594010492264 2 7504 7504 15008 112620032
348	149031 238 304 1198 1.592218492264 5.479255415386 9 0 1 1 1
349	149269 147 304 1198 1.592218492264 5.479255415386 5 7503 7504 37519 281535073
350	149416 157 304 1198 1.592218492264 5.479255415386 5 397828 397833 1989153 791345931499
351	149573 157 310 1205 1.593126492264 5.480131415386 5 398054 398055 1990274 792238119016
352	149730 157 310 1205 1.593126492264 5.480131415386 5 397828 397833 1989153 791345931499
353	149887 147 310 1205 1.593126492264 5.480131415386 5 7503 7504 37519 281535073
354	150034 212 310 1205 1.593126492264 5.480131415386 8 0 2 5 7
355	150246 126 317 1198 1.594010492264 5.479255415386 4 397828 397832 1591320 633074835610
356	150372 126 317 1198 1.594010492264 5.479255415386 4 398055 398055 1592220 633791132100
357	150498 26 317 317 1.594010492264 1.594010492264 1 0 0 0 0
358	150524 29 317 317 1.594010492264 1.594010492264 1 1072 1072 1072 1149184
359	150553 35 317 317 1.594010492264 1.594010492264 1 4294967295 4294967295 4294967295 1.844674406512e+019
360	150588 106 317 1198 1.594010492264 5.479255415386 4 0 0 0 0
361	150694 131 327 1205 1.594886492264 5.480131415386 4 0.00176 0.002144 0.007424 1.3889536e-005
362	150825 144 327 1205 1.594886492264 5.480131415386 4 0.00022 0.000765070313 0.002068507813 1.2338439627402e-006
363	150969 146 327 1205 1.594886492264 5.480131415386 4 0.440252011719 0.65647 2.174356480469 1.2079909438618
364	151115 143 327 1205 1.594886492264 5.480131415386 4 1.761773117189 2.6261 8.699494429689 19.336329944214
365	151258 118 327 1205 1.594886492264 5.480131415386 4 1072 2144 5896 9480768
366	151376 142 327 1205 1.594886492264 5.480131415386 4 4294967295 4294967295 17179869180 7.3786976260478e+019
367	151518 106 327 1205 1.594886492264 5.480131415386 4 0 0 0 0
368	151624 182 349 1010 3.416760765404 4.969842528763 7 0 0 0 0
369	151806 246 349 1010 3.416760765404 4.969842528763 8 7504 861922 6040958 5200423048604
370	152052 203 349 1010 3.416760765404 4.969842528763 7 7504 7504 52528 394170112
371	152255 212 349 1010 3.416760765404 4.969842528763 7 0 854418 5126508 4380180712344
372	152467 408 352 1261 3.416760765404 5.700270461012 15 40 44 615 25241
373	152875 408 352 1261 3.416760765404 5.700270461012 15 40 44 615 25241
374	153283 786 352 1261 3.416760765404 5.700270461012 30 0 1 15 15
375	154069 408 352 1261 3.416760765404 5.700270461012 15 40 44 615 25241
376	154477 393 352 1261 3.416760765404 5.700270461012 15 0 0 0 0
377	154870 408 352 1261 3.416760765404 5.700270461012 15 47 51 720 34586
378	155278 408 354 1263 3.417668765404 5.701146461012 15 47 51 720 34586
379	155686 408 354 1263 3.417668765404 5.701146461012 15 40 44 615 25241
380	156094 248 356 1016 3.417668765404 4.970726528763 8 861695 861702 6893585 5940189269085
381	156342 58 356 369 3.417668765404 3.419460765404 2 7504 7504 15008 112620032
382	156400 338 356 1016 3.417668765404 4.970726528763 13 0 1 1 1
383	156738 203 356 1016 3.417668765404 4.970726528763 7 7503 7504 52527 394155105
384	156941 217 356 1016 3.417668765404 4.970726528763 7 854191 854198 5979363 5107540269435
385	157158 407 358 1254 3.417668765404 5.699386461012 15 40 44 616 25322
386	157565 407 358 1254 3.417668765404 5.699386461012 15 40 44 616 25322
387	157972 784 358 1254 3.417668765404 5.699386461012 30 0 1 15 15
388	158756 407 358 1254 3.417668765404 5.699386461012 15 40 44 616 25322
389	159163 392 358 1254 3.417668765404 5.699386461012 15 0 0 0 0
390	159555 407 358 1254 3.417668765404 5.699386461012 15 47 51 721 34681
391	159962 407 360 1256 3.418576765404 5.700270461012 15 47 51 721 34681
392	160369 407 360 1256 3.418576765404 5.700270461012 15 40 44 616 25322
393	160776 217 362 1023 3.418576765404 4.971602528763 7 854417 854418 5980925 5110209122233
394	160993 217 362 1023 3.418576765404 4.971602528763 7 854191 854198 5979363 5107540269435
395	161210 203 362 1023 3.418576765404 4.971602528763 7 7503 7504 52527 394155105
396	161413 312 362 1023 3.418576765404 4.971602528763 12 0 2 7 9
397	161725 186 369 1016 3.419460765404 4.970726528763 6 854191 854197 5125165 4377886046231
398	161911 186 369 1016 3.419460765404 4.970726528763 6 854418 854418 5126508 4380180712344
399	162097 26 369 369 3.419460765404 3.419460765404 1 0 0 0 0
400	162123 29 369 369 3.419460765404 3.419460765404 1 1072 1072 1072 1149184
401	162152 35 369 369 3.419460765404 3.419460765404 1 4294967295 4294967295 4294967295 1.844674406512e+019
402	162187 156 369 1016 3.419460765404 4.970726528763 6 0 0 0 0
403	162343 193 379 1023 3.420336765404 4.971602528763 6 0.00176 0.001768 0.010568 1.8613824e-005
404	162536 220 379 1023 3.420336765404 4.971602528763 6 0.00022 0.000970706422 0.003773055056 2.7678038366741e-006
405	162756 222 379 1023 3.420336765404 4.971602528763 6 0.337273779969 0.65647 2.896849191591 1.4701092491249
406	162978 219 379 1023 3.420336765404 4.971602528763 6 1.350065826298 2.6261 11.59116982142 23.534979485798
407	163197 174 379 1023 3.420336765404 4.971602528763 6 1072 3752 14472 39934144
408	163371 210 379 1023 3.420336765404 4.971602528763 6 4294967295 4294967295 25769803770 1.1068046439072e+020
409	163581 156 379 1023 3.420336765404 4.971602528763 6 0 0 0 0
410	163737 210 396 1252 3.585283974731 5.699386461012 8 0 0 0 0
411	163947 279 396 1252 3.585283974731 5.699386461012 9 7504 904052 7239920 6538536459648
412	164226 234 396 1252 3.585283974731 5.699386461012 8 7504 7504 60032 450480128
413	164460 245 396 1252 3.585283974731 5.699386461012 8 0 896548 6275836 5626588214128
414	164705 282 403 1258 3.586191974731 5.700270461012 9 903825 903833 8134456 7352152712962
415	164987 58 403 416 3.586191974731 3.587983974731 2 7504 7504 15008 112620032
416	165045 396 403 1258 3.586191974731 5.700270461012 15 0 1 1 1
417	165441 235 403 1258 3.586191974731 5.700270461012 8 7503 7504 60031 450465121
418	165676 251 403 1258 3.586191974731 5.700270461012 8 896321 896329 7170600 6427188045060
419	165927 251 409 1265 3.587099974731 5.701146461012 8 896547 896548 7172383 6430384737337
420	166178 251 409 1265 3.587099974731 5.701146461012 8 896321 896329 7170600 6427188045060
421	166429 235 409 1265 3.587099974731 5.701146461012 8 7503 7504 60031 450465121
422	166664 369 409 1265 3.587099974731 5.701146461012 14 0 2 8 10
423	167033 220 416 1258 3.587983974731 5.700270461012 7 896321 896328 6274271 5623782368819
424	167253 220 416 1258 3.587983974731 5.700270461012 7 896548 896548 6275836 5626588214128
425	167473 26 416 416 3.587983974731 3.587983974731 1 0 0 0 0
426	167499 29 416 416 3.587983974731 3.587983974731 1 1072 1072 1072 1149184
427	167528 35 416 416 3.587983974731 3.587983974731 1 4294967295 4294967295 4294967295 1.844674406512e+019
428	167563 185 416 1258 3.587983974731 5.700270461012 7 0 0 0 0
429	167748 228 426 1265 3.588859974731 5.701146461012 7 0.00176 0.001768 0.012328 2.1711424e-005
430	167976 262 426 1265 3.588859974731 5.701146461012 7 0.00022 0.001069525132 0.004841324084 3.9108865929911e-006
431	168238 264 426 1265 3.588859974731 5.701146461012 7 0.295213455437 0.65647 3.192062012994 1.557259211129
432	168502 260 426 1265 3.588859974731 5.701146461012 7 1.18192334688 2.6261 12.77308937606 24.931899751603
433	168762 206 426 1265 3.588859974731 5.701146461012 7 1072 4288 18760 58321088
434	168968 248 426 1265 3.588859974731 5.701146461012 7 4294967295 4294967295 30064771065 1.2912720845584e+020
435	169216 185 426 1265 3.588859974731 5.701146461012 7 0 0 0 0
436	169401 52 772 795 4.763766738608 4.765582738608 2 0 0 0 0
437	169453 93 772 795 4.763766738608 4.765582738608 3 7504 1198673 2404850 2873690231874
438	169546 58 772 795 4.763766738608 4.765582738608 2 7504 7504 15008 112620032
439	169604 58 772 795 4.763766738608 4.765582738608 2 0 1191169 1191169 1418883586561
440	169662 54 775 798 4.763766738608 4.765582738608 2 41 44 85 3617
441	169716 54 775 798 4.763766738608 4.765582738608 2 41 44 85 3617
442	169770 104 775 798 4.763766738608 4.765582738608 4 0 1 2 2
443	169874 54 775 798 4.763766738608 4.765582738608 2 41 44 85 3617
444	169928 52 775 798 4.763766738608 4.765582738608 2 0 0 0 0
445	169980 54 775 798 4.763766738608 4.765582738608 2 48 51 99 4905
446	170034 54 787 800 4.764674738608 4.766466738608 2 48 51 99 4905
447	170088 54 787 800 4.764674738608 4.766466738608 2 41 44 85 3617
448	170142 96 789 904 4.764674738608 4.779509844538 3 1190941 1194650 3580147 4272493125117
449	170238 78 789 904 4.764674738608 4.779509844538 3 0 0 0 0
450	170316 96 789 802 4.764674738608 4.766466738608 3 1198446 1198446 3595338 4308818444748
451	170412 58 789 802 4.764674738608 4.766466738608 2 7504 7504 15008 112620032
452	170470 78 789 802 4.764674738608 4.766466738608 3 0 1 1 1
453	170548 58 789 802 4.764674738608 4.766466738608 2 7503 7504 15007 112605025
454	170606 64 789 802 4.764674738608 4.766466738608 2 1190942 1190943 2381885 2836688076613
455	170670 54 791 806 4.764674738608 4.766466738608 2 40 44 84 3536
456	170724 54 791 806 4.764674738608 4.766466738608 2 40 44 84 3536
457	170778 104 791 806 4.764674738608 4.766466738608 4 0 1 2 2
458	170882 54 791 806 4.764674738608 4.766466738608 2 40 44 84 3536
459	170936 52 791 806 4.764674738608 4.766466738608 2 0 0 0 0
460	170988 54 791 806 4.764674738608 4.766466738608 2 47 51 98 4810
461	171042 54 793 810 4.765582738608 4.767342738608 2 47 51 98 4810
462	171096 54 793 810 4.765582738608 4.767342738608 2 40 44 84 3536
463	171150 64 795 812 4.765582738608 4.767342738608 2 1191168 1191169 2382337 2837764790785
464	171214 64 795 812 4.765582738608 4.767342738608 2 1190942 1190943 2381885 2836688076613
465	171278 58 795 812 4.765582738608 4.767342738608 2 7503 7504 15007 112605025
466	171336 52 795 812 4.765582738608 4.767342738608 2 0 1 1 1
467	171388 32 802 802 4.766466738608 4.766466738608 1 1190942 1190942 1190942 1418342847364
468	171420 32 802 802 4.766466738608 4.766466738608 1 1191169 1191169 1191169 1418883586561
469	171452 26 802 802 4.766466738608 4.766466738608 1 0 0 0 0
470	171478 29 802 802 4.766466738608 4.766466738608 1 1072 1072 1072 1149184
471	171507 35 802 802 4.766466738608 4.766466738608 1 4294967295 4294967295 4294967295 1.844674406512e+019
472	171542 26 802 802 4.766466738608 4.766466738608 1 0 0 0 0
473	171568 32 812 812 4.767342738608 4.767342738608 1 0.00176 0.00176 0.00176 3.0976e-006
474	171600 32 812 812 4.767342738608 4.767342738608 1 0.00022 0.00022 0.00022 4.84e-008
475	171632 32 812 812 4.767342738608 4.767342738608 1 0.65647 0.65647 0.65647 0.4309528609
476	171664 31 812 812 4.767342738608 4.767342738608 1 2.6261 2.6261 2.6261 6.89640121
477	171695 29 812 812 4.767342738608 4.767342738608 1 1072 1072 1072 1149184
478	171724 35 812 812 4.767342738608 4.767342738608 1 4294967295 4294967295 4294967295 1.844674406512e+019
479	171759 26 812 812 4.767342738608 4.767342738608 1 0 0 0 0
480	171785 52 868 911 4.778225844538 4.780041844538 2 0 0 0 0
481	171837 93 868 911 4.778225844538 4.780041844538 3 7504 1202288 2412080 2891049179904
482	171930 58 868 911 4.778225844538 4.780041844538 2 7504 7504 15008 112620032
483	171988 58 868 911 4.778225844538 4.780041844538 2 0 1194784 1194784 1427508806656
484	172046 54 871 914 4.778225844538 4.780041844538 2 41 44 85 3617
485	172100 54 871 914 4.778225844538 4.780041844538 2 41 44 85 3617
486	172154 104 871 914 4.778225844538 4.780041844538 4 0 1 2 2
487	172258 54 871 914 4.778225844538 4.780041844538 2 41 44 85 3617
488	172312 52 871 914 4.778225844538 4.780041844538 2 0 0 0 0
489	172364 54 871 914 4.778225844538 4.780041844538 2 48 51 99 4905
490	172418 52 881 917 4.778601844538 4.780417844538 2 0 0 0 0
491	172470 93 881 917 4.778601844538 4.780417844538 3 7504 1202382 2412268 2891501257864
492	172563 58 881 917 4.778601844538 4.780417844538 2 7504 7504 15008 112620032
493	172621 58 881 917 4.778601844538 4.780417844538 2 0 1194878 1194878 1427733434884
494	172679 54 884 920 4.778601844538 4.780417844538 2 41 44 85 3617
495	172733 54 884 920 4.778601844538 4.780417844538 2 41 44 85 3617
496	172787 104 884 920 4.778601844538 4.780417844538 4 0 1 2 2
497	172891 54 884 920 4.778601844538 4.780417844538 2 41 44 85 3617
498	172945 52 884 920 4.778601844538 4.780417844538 2 0 0 0 0
499	172997 54 884 920 4.778601844538 4.780417844538 2 48 51 99 4905
500	173051 54 894 923 4.779133844538 4.780925844538 2 48 51 99 4905
501	173105 54 894 923 4.779133844538 4.780925844538 2 41 44 85 3617
502	173159 96 896 925 4.779133844538 4.780925844538 3 1202061 1202061 3606183 4334851943163
503	173255 58 896 925 4.779133844538 4.780925844538 2 7504 7504 15008 112620032
504	173313 78 896 925 4.779133844538 4.780925844538 3 0 1 1 1
505	173391 58 896 925 4.779133844538 4.780925844538 2 7503 7504 15007 112605025
506	173449 64 896 925 4.779133844538 4.780925844538 2 1194557 1194558 2389115 2853935241613
507	173513 54 898 929 4.779133844538 4.780925844538 2 40 44 84 3536
508	173567 54 898 929 4.779133844538 4.780925844538 2 40 44 84 3536
509	173621 104 898 929 4.779133844538 4.780925844538 4 0 1 2 2
510	173725 54 898 929 4.779133844538 4.780925844538 2 40 44 84 3536
511	173779 52 898 929 4.779133844538 4.780925844538 2 0 0 0 0
512	173831 54 898 929 4.779133844538 4.780925844538 2 47 51 98 4810
513	173885 54 902 932 4.779509844538 4.781301844538 2 48 51 99 4905
514	173939 54 902 932 4.779509844538 4.781301844538 2 41 44 85 3617
515	173993 96 904 935 4.779509844538 4.781301844538 3 1202155 1202155 3606465 4335529932075
516	174089 58 904 935 4.779509844538 4.781301844538 2 7504 7504 15008 112620032
517	174147 78 904 935 4.779509844538 4.781301844538 3 0 1 1 1
518	174225 58 904 935 4.779509844538 4.781301844538 2 7503 7504 15007 112605025
519	174283 64 904 935 4.779509844538 4.781301844538 2 1194651 1194652 2389303 2854384412905
520	174347 54 906 939 4.779509844538 4.781301844538 2 40 44 84 3536
521	174401 54 906 939 4.779509844538 4.781301844538 2 40 44 84 3536
522	174455 104 906 939 4.779509844538 4.781301844538 4 0 1 2 2
523	174559 54 906 939 4.779509844538 4.781301844538 2 40 44 84 3536
524	174613 52 906 939 4.779509844538 4.781301844538 2 0 0 0 0
525	174665 54 906 939 4.779509844538 4.781301844538 2 47 51 98 4810
526	174719 54 909 943 4.780041844538 4.781801844538 2 47 51 98 4810
527	174773 54 909 943 4.780041844538 4.781801844538 2 40 44 84 3536
528	174827 64 911 945 4.780041844538 4.781801844538 2 1194783 1194784 2389567 2855015223745
529	174891 64 911 945 4.780041844538 4.781801844538 2 1194557 1194558 2389115 2853935241613
530	174955 58 911 945 4.780041844538 4.781801844538 2 7503 7504 15007 112605025
531	175013 52 911 945 4.780041844538 4.781801844538 2 0 1 1 1
532	175065 54 915 946 4.780417844538 4.782177844538 2 47 51 98 4810
533	175119 54 915 946 4.780417844538 4.782177844538 2 40 44 84 3536
534	175173 64 917 948 4.780417844538 4.782177844538 2 1194877 1194878 2389755 2855464480013
535	175237 64 917 948 4.780417844538 4.782177844538 2 1194651 1194652 2389303 2854384412905
536	175301 58 917 948 4.780417844538 4.782177844538 2 7503 7504 15007 112605025
537	175359 52 917 948 4.780417844538 4.782177844538 2 0 1 1 1
538	175411 32 925 925 4.780925844538 4.780925844538 1 1194557 1194557 1194557 1426966426249
539	175443 32 925 925 4.780925844538 4.780925844538 1 1194784 1194784 1194784 1427508806656
540	175475 26 925 925 4.780925844538 4.780925844538 1 0 0 0 0
541	175501 29 925 925 4.780925844538 4.780925844538 1 1072 1072 1072 1149184
542	175530 35 925 925 4.780925844538 4.780925844538 1 4294967295 4294967295 4294967295 1.844674406512e+019
543	175565 26 925 925 4.780925844538 4.780925844538 1 0 0 0 0
544	175591 32 935 935 4.781301844538 4.781301844538 1 1194651 1194651 1194651 1427191011801
545	175623 32 935 935 4.781301844538 4.781301844538 1 1194878 1194878 1194878 1427733434884
546	175655 26 935 935 4.781301844538 4.781301844538 1 0 0 0 0
547	175681 29 935 935 4.781301844538 4.781301844538 1 1072 1072 1072 1149184
548	175710 35 935 935 4.781301844538 4.781301844538 1 4294967295 4294967295 4294967295 1.844674406512e+019
549	175745 26 935 935 4.781301844538 4.781301844538 1 0 0 0 0
550	175771 32 945 945 4.781801844538 4.781801844538 1 0.00176 0.00176 0.00176 3.0976e-006
551	175803 32 945 945 4.781801844538 4.781801844538 1 0.00022 0.00022 0.00022 4.84e-008
552	175835 32 945 945 4.781801844538 4.781801844538 1 0.65647 0.65647 0.65647 0.4309528609
553	175867 31 945 945 4.781801844538 4.781801844538 1 2.6261 2.6261 2.6261 6.89640121
554	175898 29 945 945 4.781801844538 4.781801844538 1 1072 1072 1072 1149184
555	175927 35 945 945 4.781801844538 4.781801844538 1 4294967295 4294967295 4294967295 1.844674406512e+019
556	175962 26 945 945 4.781801844538 4.781801844538 1 0 0 0 0
557	175988 32 948 948 4.782177844538 4.782177844538 1 0.00176 0.00176 0.00176 3.0976e-006
558	176020 32 948 948 4.782177844538 4.782177844538 1 0.00022 0.00022 0.00022 4.84e-008
559	176052 32 948 948 4.782177844538 4.782177844538 1 0.65647 0.65647 0.65647 0.4309528609
560	176084 31 948 948 4.782177844538 4.782177844538 1 2.6261 2.6261 2.6261 6.89640121
561	176115 29 948 948 4.782177844538 4.782177844538 1 1072 1072 1072 1149184
562	176144 35 948 948 4.782177844538 4.782177844538 1 4294967295 4294967295 4294967295 1.844674406512e+019
563	176179 26 948 948 4.782177844538 4.782177844538 1 0 0 0 0

