version 2
run LJ_03-0-20220111-15:07:11-9096
attr configname LJ_03
attr datetime 20220111-15:07:11
attr experiment LJ_03
attr inifile omnetpp.ini
attr iterationvars ""
attr iterationvarsf ""
attr measurement ""
attr network scenario
attr processid 9096
attr repetition 0
attr replication #0
attr resultdir results
attr runnumber 0
attr seedset 0
param **.client0.app[0].leave 0.0
param **.client3.app[0].join 0.0
param **.ppp[*].ppp.queue.typename "\"DropTailQueue\""
param **.tcp.typename "\"Tcp\""
param **.tcp.nagleEnabled false
param **.cli*.app[*].nPar 5
param **.cli*.app[*].fPar 0
param **.numApps 1
param **.client0.app[*].typename "\"Node\""
param **.client0.app[0].localPort 1000
param **.client0.app[0].localPortL 1234
param **.client0.app[0].connectAddress "\"\""
param **.client0.app[0].connectPort 1234
param **.client1.app[*].typename "\"Node\""
param **.client1.app[0].localPort 1001
param **.client1.app[0].localPortL 1234
param **.client1.app[0].connectAddress "\"\""
param **.client1.app[0].connectPort 1234
param **.client2.app[*].typename "\"Node\""
param **.client2.app[0].localPort 1002
param **.client2.app[0].localPortL 1234
param **.client2.app[0].connectAddress "\"\""
param **.client2.app[0].connectPort 1234
param **.client3.app[*].typename "\"Node\""
param **.client3.app[0].localPort 1003
param **.client3.app[0].localPortL 1234
param **.client3.app[0].connectAddress "\"\""
param **.client3.app[0].connectPort 1234
param **.client4.app[*].typename "\"Node\""
param **.client4.app[0].localPort 1004
param **.client4.app[0].localPortL 1234
param **.client4.app[0].connectAddress "\"\""
param **.client4.app[0].connectPort 1234
param *.configurator.dumpAddresses true
param *.configurator.dumpTopology true
param *.configurator.dumpLinks true
param *.configurator.dumpRoutes true

vector 0 scenario.client0.ppp[0].ppp transmissionState:vector ETV
attr interpolationmode sample-hold
attr source transmissionStateChanged
attr title "tx state, vector"
vector 1 scenario.client0.ppp[1].ppp transmissionState:vector ETV
attr interpolationmode sample-hold
attr source transmissionStateChanged
attr title "tx state, vector"
vector 2 scenario.client0.ppp[2].ppp transmissionState:vector ETV
attr interpolationmode sample-hold
attr source transmissionStateChanged
attr title "tx state, vector"
vector 3 scenario.client0.ppp[3].ppp transmissionState:vector ETV
attr interpolationmode sample-hold
attr source transmissionStateChanged
attr title "tx state, vector"
vector 4 scenario.client1.ppp[0].ppp transmissionState:vector ETV
attr interpolationmode sample-hold
attr source transmissionStateChanged
attr title "tx state, vector"
vector 5 scenario.client1.ppp[1].ppp transmissionState:vector ETV
attr interpolationmode sample-hold
attr source transmissionStateChanged
attr title "tx state, vector"
vector 6 scenario.client1.ppp[2].ppp transmissionState:vector ETV
attr interpolationmode sample-hold
attr source transmissionStateChanged
attr title "tx state, vector"
vector 7 scenario.client1.ppp[3].ppp transmissionState:vector ETV
attr interpolationmode sample-hold
attr source transmissionStateChanged
attr title "tx state, vector"
vector 8 scenario.client2.ppp[0].ppp transmissionState:vector ETV
attr interpolationmode sample-hold
attr source transmissionStateChanged
attr title "tx state, vector"
vector 9 scenario.client2.ppp[1].ppp transmissionState:vector ETV
attr interpolationmode sample-hold
attr source transmissionStateChanged
attr title "tx state, vector"
vector 10 scenario.client2.ppp[2].ppp transmissionState:vector ETV
attr interpolationmode sample-hold
attr source transmissionStateChanged
attr title "tx state, vector"
vector 11 scenario.client2.ppp[3].ppp transmissionState:vector ETV
attr interpolationmode sample-hold
attr source transmissionStateChanged
attr title "tx state, vector"
vector 12 scenario.client3.ppp[0].ppp transmissionState:vector ETV
attr interpolationmode sample-hold
attr source transmissionStateChanged
attr title "tx state, vector"
vector 13 scenario.client3.ppp[1].ppp transmissionState:vector ETV
attr interpolationmode sample-hold
attr source transmissionStateChanged
attr title "tx state, vector"
vector 14 scenario.client3.ppp[2].ppp transmissionState:vector ETV
attr interpolationmode sample-hold
attr source transmissionStateChanged
attr title "tx state, vector"
vector 15 scenario.client3.ppp[3].ppp transmissionState:vector ETV
attr interpolationmode sample-hold
attr source transmissionStateChanged
attr title "tx state, vector"
vector 16 scenario.client4.ppp[0].ppp transmissionState:vector ETV
attr interpolationmode sample-hold
attr source transmissionStateChanged
attr title "tx state, vector"
vector 17 scenario.client4.ppp[1].ppp transmissionState:vector ETV
attr interpolationmode sample-hold
attr source transmissionStateChanged
attr title "tx state, vector"
vector 18 scenario.client4.ppp[2].ppp transmissionState:vector ETV
attr interpolationmode sample-hold
attr source transmissionStateChanged
attr title "tx state, vector"
vector 19 scenario.client4.ppp[3].ppp transmissionState:vector ETV
attr interpolationmode sample-hold
attr source transmissionStateChanged
attr title "tx state, vector"
vector 20 scenario.client0.tcp.conn-25 tcpRcvQueueBytes:vector ETV
attr interpolationmode sample-hold
vector 21 scenario.client0.tcp.conn-25 rcvAdv:vector ETV
attr interpolationmode sample-hold
vector 22 scenario.client0.tcp.conn-25 rcvWnd:vector ETV
attr interpolationmode sample-hold
vector 23 scenario.client0.tcp.conn-25 sndAck:vector ETV
attr interpolationmode sample-hold
vector 24 scenario.client0.ppp[0].ppp rcvdPkFromHl:vector(packetBytes) ETV
attr interpolationmode none
attr source packetReceivedFromUpper
attr title "packets received from higher layer, vector(packetBytes)"
vector 25 scenario.client0.ppp[0].ppp.queue packetPushed:vector(packetBytes) ETV
attr interpolationmode none
attr title "packet pushed, vector(packetBytes)"
vector 26 scenario.client0.ppp[0].ppp.queue queueLength:vector ETV
attr interpolationmode sample-hold
attr source "count(packetPushed) - count(packetPopped) - count(packetRemoved) - count(packetDropped)"
attr title "queue length, vector"
vector 27 scenario.client0.ppp[0].ppp.queue packetPopped:vector(packetBytes) ETV
attr interpolationmode none
attr title "packet popped, vector(packetBytes)"
vector 28 scenario.client0.ppp[0].ppp.queue queueingTime:vector ETV
attr interpolationmode none
attr source queueingTime(packetPopped)
attr title "queueing times, vector"
attr unit s
vector 29 scenario.client0.ppp[0].ppp txPk:vector(packetBytes) ETV
attr interpolationmode none
attr source packetSentToLower
attr title "packets transmitted, vector(packetBytes)"
vector 30 scenario.client1.ppp[0].ppp rxPkOk:vector(packetBytes) ETV
attr interpolationmode none
attr source rxPkOk
attr title "packets received OK, vector(packetBytes)"
vector 31 scenario.client1.ppp[0].ppp passedUpPk:vector(packetBytes) ETV
attr interpolationmode none
attr source packetSentToUpper
attr title "packets passed to higher layer, vector(packetBytes)"
vector 32 scenario.client1.tcp.conn-1 rcvSeq:vector ETV
attr interpolationmode sample-hold
vector 33 scenario.client1.tcp.conn-1 rcvAck:vector ETV
attr interpolationmode sample-hold
vector 34 scenario.client1.tcp.conn-26 rcvAdv:vector ETV
attr interpolationmode sample-hold
vector 35 scenario.client1.tcp.conn-26 sndWnd:vector ETV
attr interpolationmode sample-hold
vector 36 scenario.client1.tcp.conn-26 tcpRcvQueueBytes:vector ETV
attr interpolationmode sample-hold
vector 37 scenario.client1.tcp.conn-26 rcvWnd:vector ETV
attr interpolationmode sample-hold
vector 38 scenario.client1.tcp.conn-26 sndAck:vector ETV
attr interpolationmode sample-hold
vector 39 scenario.client1.ppp[0].ppp rcvdPkFromHl:vector(packetBytes) ETV
attr interpolationmode none
attr source packetReceivedFromUpper
attr title "packets received from higher layer, vector(packetBytes)"
vector 40 scenario.client1.ppp[0].ppp.queue packetPushed:vector(packetBytes) ETV
attr interpolationmode none
attr title "packet pushed, vector(packetBytes)"
vector 41 scenario.client1.ppp[0].ppp.queue queueLength:vector ETV
attr interpolationmode sample-hold
attr source "count(packetPushed) - count(packetPopped) - count(packetRemoved) - count(packetDropped)"
attr title "queue length, vector"
vector 42 scenario.client1.ppp[0].ppp.queue packetPopped:vector(packetBytes) ETV
attr interpolationmode none
attr title "packet popped, vector(packetBytes)"
vector 43 scenario.client1.ppp[0].ppp.queue queueingTime:vector ETV
attr interpolationmode none
attr source queueingTime(packetPopped)
attr title "queueing times, vector"
attr unit s
vector 44 scenario.client1.ppp[0].ppp txPk:vector(packetBytes) ETV
attr interpolationmode none
attr source packetSentToLower
attr title "packets transmitted, vector(packetBytes)"
vector 45 scenario.client0.ppp[0].ppp rxPkOk:vector(packetBytes) ETV
attr interpolationmode none
attr source rxPkOk
attr title "packets received OK, vector(packetBytes)"
vector 46 scenario.client0.ppp[0].ppp passedUpPk:vector(packetBytes) ETV
attr interpolationmode none
attr source packetSentToUpper
attr title "packets passed to higher layer, vector(packetBytes)"
vector 47 scenario.client0.tcp.conn-25 rcvSeq:vector ETV
attr interpolationmode sample-hold
vector 48 scenario.client0.tcp.conn-25 rcvAck:vector ETV
attr interpolationmode sample-hold
vector 49 scenario.client0.tcp.conn-25 sndWnd:vector ETV
attr interpolationmode sample-hold
vector 50 scenario.client0.tcp.conn-25 unacked:vector ETV
attr interpolationmode sample-hold
vector 51 scenario.client1.tcp.conn-26 rcvSeq:vector ETV
attr interpolationmode sample-hold
vector 52 scenario.client1.tcp.conn-26 rcvAck:vector ETV
attr interpolationmode sample-hold
vector 53 scenario.client1.tcp.conn-26 unacked:vector ETV
attr interpolationmode sample-hold
vector 54 scenario.client1.tcp.conn-26 cwnd:vector ETV
attr interpolationmode sample-hold
vector 55 scenario.client1.tcp.conn-26 ssthresh:vector ETV
attr interpolationmode sample-hold
vector 56 scenario.client1.tcp.conn-26 dupAcks:vector ETV
attr interpolationmode sample-hold
vector 57 scenario.client0.tcp.conn-25 rtt:vector ETV
attr interpolationmode sample-hold
vector 58 scenario.client0.tcp.conn-25 srtt:vector ETV
attr interpolationmode sample-hold
vector 59 scenario.client0.tcp.conn-25 rttvar:vector ETV
attr interpolationmode sample-hold
vector 60 scenario.client0.tcp.conn-25 rto:vector ETV
attr interpolationmode sample-hold
vector 61 scenario.client0.tcp.conn-25 cwnd:vector ETV
attr interpolationmode sample-hold
vector 62 scenario.client0.tcp.conn-25 ssthresh:vector ETV
attr interpolationmode sample-hold
vector 63 scenario.client0.tcp.conn-25 dupAcks:vector ETV
attr interpolationmode sample-hold
vector 64 scenario.client1.tcp.conn-27 tcpRcvQueueBytes:vector ETV
attr interpolationmode sample-hold
vector 65 scenario.client1.tcp.conn-27 rcvAdv:vector ETV
attr interpolationmode sample-hold
vector 66 scenario.client1.tcp.conn-27 rcvWnd:vector ETV
attr interpolationmode sample-hold
vector 67 scenario.client1.tcp.conn-27 sndAck:vector ETV
attr interpolationmode sample-hold
vector 68 scenario.client0.tcp.conn-0 rcvSeq:vector ETV
attr interpolationmode sample-hold
vector 69 scenario.client0.tcp.conn-0 rcvAck:vector ETV
attr interpolationmode sample-hold
vector 70 scenario.client0.tcp.conn-28 rcvAdv:vector ETV
attr interpolationmode sample-hold
vector 71 scenario.client0.tcp.conn-28 sndWnd:vector ETV
attr interpolationmode sample-hold
vector 72 scenario.client0.tcp.conn-28 tcpRcvQueueBytes:vector ETV
attr interpolationmode sample-hold
vector 73 scenario.client0.tcp.conn-28 rcvWnd:vector ETV
attr interpolationmode sample-hold
vector 74 scenario.client0.tcp.conn-28 sndAck:vector ETV
attr interpolationmode sample-hold
vector 75 scenario.client1.tcp.conn-27 rcvSeq:vector ETV
attr interpolationmode sample-hold
vector 76 scenario.client1.tcp.conn-27 rcvAck:vector ETV
attr interpolationmode sample-hold
vector 77 scenario.client1.tcp.conn-27 sndWnd:vector ETV
attr interpolationmode sample-hold
vector 78 scenario.client1.tcp.conn-27 unacked:vector ETV
attr interpolationmode sample-hold
vector 79 scenario.client0.tcp.conn-28 rcvSeq:vector ETV
attr interpolationmode sample-hold
vector 80 scenario.client0.tcp.conn-28 rcvAck:vector ETV
attr interpolationmode sample-hold
vector 81 scenario.client0.tcp.conn-28 unacked:vector ETV
attr interpolationmode sample-hold
vector 82 scenario.client0.tcp.conn-28 cwnd:vector ETV
attr interpolationmode sample-hold
vector 83 scenario.client0.tcp.conn-28 ssthresh:vector ETV
attr interpolationmode sample-hold
vector 84 scenario.client0.tcp.conn-28 dupAcks:vector ETV
attr interpolationmode sample-hold
vector 85 scenario.client1.tcp.conn-27 rtt:vector ETV
attr interpolationmode sample-hold
vector 86 scenario.client1.tcp.conn-27 srtt:vector ETV
attr interpolationmode sample-hold
vector 87 scenario.client1.tcp.conn-27 rttvar:vector ETV
attr interpolationmode sample-hold
vector 88 scenario.client1.tcp.conn-27 rto:vector ETV
attr interpolationmode sample-hold
vector 89 scenario.client1.tcp.conn-27 cwnd:vector ETV
attr interpolationmode sample-hold
vector 90 scenario.client1.tcp.conn-27 ssthresh:vector ETV
attr interpolationmode sample-hold
vector 91 scenario.client1.tcp.conn-27 dupAcks:vector ETV
attr interpolationmode sample-hold
vector 92 scenario.client3.tcp.conn-29 tcpRcvQueueBytes:vector ETV
attr interpolationmode sample-hold
vector 93 scenario.client3.tcp.conn-29 rcvAdv:vector ETV
attr interpolationmode sample-hold
vector 94 scenario.client3.tcp.conn-29 rcvWnd:vector ETV
attr interpolationmode sample-hold
vector 95 scenario.client3.tcp.conn-29 sndAck:vector ETV
attr interpolationmode sample-hold
vector 96 scenario.client3.ppp[0].ppp rcvdPkFromHl:vector(packetBytes) ETV
attr interpolationmode none
attr source packetReceivedFromUpper
attr title "packets received from higher layer, vector(packetBytes)"
vector 97 scenario.client3.ppp[0].ppp.queue packetPushed:vector(packetBytes) ETV
attr interpolationmode none
attr title "packet pushed, vector(packetBytes)"
vector 98 scenario.client3.ppp[0].ppp.queue queueLength:vector ETV
attr interpolationmode sample-hold
attr source "count(packetPushed) - count(packetPopped) - count(packetRemoved) - count(packetDropped)"
attr title "queue length, vector"
vector 99 scenario.client3.ppp[0].ppp.queue packetPopped:vector(packetBytes) ETV
attr interpolationmode none
attr title "packet popped, vector(packetBytes)"
vector 100 scenario.client3.ppp[0].ppp.queue queueingTime:vector ETV
attr interpolationmode none
attr source queueingTime(packetPopped)
attr title "queueing times, vector"
attr unit s
vector 101 scenario.client3.ppp[0].ppp txPk:vector(packetBytes) ETV
attr interpolationmode none
attr source packetSentToLower
attr title "packets transmitted, vector(packetBytes)"
vector 102 scenario.client0.ppp[2].ppp rxPkOk:vector(packetBytes) ETV
attr interpolationmode none
attr source rxPkOk
attr title "packets received OK, vector(packetBytes)"
vector 103 scenario.client0.ppp[2].ppp passedUpPk:vector(packetBytes) ETV
attr interpolationmode none
attr source packetSentToUpper
attr title "packets passed to higher layer, vector(packetBytes)"
vector 104 scenario.client0.tcp.conn-30 rcvAdv:vector ETV
attr interpolationmode sample-hold
vector 105 scenario.client0.tcp.conn-30 sndWnd:vector ETV
attr interpolationmode sample-hold
vector 106 scenario.client0.tcp.conn-30 tcpRcvQueueBytes:vector ETV
attr interpolationmode sample-hold
vector 107 scenario.client0.tcp.conn-30 rcvWnd:vector ETV
attr interpolationmode sample-hold
vector 108 scenario.client0.tcp.conn-30 sndAck:vector ETV
attr interpolationmode sample-hold
vector 109 scenario.client0.ppp[2].ppp rcvdPkFromHl:vector(packetBytes) ETV
attr interpolationmode none
attr source packetReceivedFromUpper
attr title "packets received from higher layer, vector(packetBytes)"
vector 110 scenario.client0.ppp[2].ppp.queue packetPushed:vector(packetBytes) ETV
attr interpolationmode none
attr title "packet pushed, vector(packetBytes)"
vector 111 scenario.client0.ppp[2].ppp.queue queueLength:vector ETV
attr interpolationmode sample-hold
attr source "count(packetPushed) - count(packetPopped) - count(packetRemoved) - count(packetDropped)"
attr title "queue length, vector"
vector 112 scenario.client0.ppp[2].ppp.queue packetPopped:vector(packetBytes) ETV
attr interpolationmode none
attr title "packet popped, vector(packetBytes)"
vector 113 scenario.client0.ppp[2].ppp.queue queueingTime:vector ETV
attr interpolationmode none
attr source queueingTime(packetPopped)
attr title "queueing times, vector"
attr unit s
vector 114 scenario.client0.ppp[2].ppp txPk:vector(packetBytes) ETV
attr interpolationmode none
attr source packetSentToLower
attr title "packets transmitted, vector(packetBytes)"
vector 115 scenario.client3.ppp[0].ppp rxPkOk:vector(packetBytes) ETV
attr interpolationmode none
attr source rxPkOk
attr title "packets received OK, vector(packetBytes)"
vector 116 scenario.client3.ppp[0].ppp passedUpPk:vector(packetBytes) ETV
attr interpolationmode none
attr source packetSentToUpper
attr title "packets passed to higher layer, vector(packetBytes)"
vector 117 scenario.client3.tcp.conn-29 rcvSeq:vector ETV
attr interpolationmode sample-hold
vector 118 scenario.client3.tcp.conn-29 rcvAck:vector ETV
attr interpolationmode sample-hold
vector 119 scenario.client3.tcp.conn-29 sndWnd:vector ETV
attr interpolationmode sample-hold
vector 120 scenario.client3.tcp.conn-29 unacked:vector ETV
attr interpolationmode sample-hold
vector 121 scenario.client0.tcp.conn-30 rcvSeq:vector ETV
attr interpolationmode sample-hold
vector 122 scenario.client0.tcp.conn-30 rcvAck:vector ETV
attr interpolationmode sample-hold
vector 123 scenario.client0.tcp.conn-30 unacked:vector ETV
attr interpolationmode sample-hold
vector 124 scenario.client0.tcp.conn-30 cwnd:vector ETV
attr interpolationmode sample-hold
vector 125 scenario.client0.tcp.conn-30 ssthresh:vector ETV
attr interpolationmode sample-hold
vector 126 scenario.client0.tcp.conn-30 dupAcks:vector ETV
attr interpolationmode sample-hold
vector 127 scenario.client3.tcp.conn-29 rtt:vector ETV
attr interpolationmode sample-hold
vector 128 scenario.client3.tcp.conn-29 srtt:vector ETV
attr interpolationmode sample-hold
vector 129 scenario.client3.tcp.conn-29 rttvar:vector ETV
attr interpolationmode sample-hold
vector 130 scenario.client3.tcp.conn-29 rto:vector ETV
attr interpolationmode sample-hold
vector 131 scenario.client3.tcp.conn-29 cwnd:vector ETV
attr interpolationmode sample-hold
vector 132 scenario.client3.tcp.conn-29 ssthresh:vector ETV
attr interpolationmode sample-hold
vector 133 scenario.client3.tcp.conn-29 dupAcks:vector ETV
attr interpolationmode sample-hold
vector 134 scenario.client0.tcp.conn-31 tcpRcvQueueBytes:vector ETV
attr interpolationmode sample-hold
vector 135 scenario.client0.tcp.conn-31 rcvAdv:vector ETV
attr interpolationmode sample-hold
vector 136 scenario.client0.tcp.conn-31 rcvWnd:vector ETV
attr interpolationmode sample-hold
vector 137 scenario.client0.tcp.conn-31 sndAck:vector ETV
attr interpolationmode sample-hold
vector 138 scenario.client3.tcp.conn-3 rcvSeq:vector ETV
attr interpolationmode sample-hold
vector 139 scenario.client3.tcp.conn-3 rcvAck:vector ETV
attr interpolationmode sample-hold
vector 140 scenario.client3.tcp.conn-32 rcvAdv:vector ETV
attr interpolationmode sample-hold
vector 141 scenario.client3.tcp.conn-32 sndWnd:vector ETV
attr interpolationmode sample-hold
vector 142 scenario.client3.tcp.conn-32 tcpRcvQueueBytes:vector ETV
attr interpolationmode sample-hold
vector 143 scenario.client3.tcp.conn-32 rcvWnd:vector ETV
attr interpolationmode sample-hold
vector 144 scenario.client3.tcp.conn-32 sndAck:vector ETV
attr interpolationmode sample-hold
vector 145 scenario.client0.tcp.conn-31 rcvSeq:vector ETV
attr interpolationmode sample-hold
vector 146 scenario.client0.tcp.conn-31 rcvAck:vector ETV
attr interpolationmode sample-hold
vector 147 scenario.client0.tcp.conn-31 sndWnd:vector ETV
attr interpolationmode sample-hold
vector 148 scenario.client0.tcp.conn-31 unacked:vector ETV
attr interpolationmode sample-hold
vector 149 scenario.client3.tcp.conn-32 rcvSeq:vector ETV
attr interpolationmode sample-hold
vector 150 scenario.client3.tcp.conn-32 rcvAck:vector ETV
attr interpolationmode sample-hold
vector 151 scenario.client3.tcp.conn-32 unacked:vector ETV
attr interpolationmode sample-hold
vector 152 scenario.client3.tcp.conn-32 cwnd:vector ETV
attr interpolationmode sample-hold
vector 153 scenario.client3.tcp.conn-32 ssthresh:vector ETV
attr interpolationmode sample-hold
vector 154 scenario.client3.tcp.conn-32 dupAcks:vector ETV
attr interpolationmode sample-hold
vector 155 scenario.client0.tcp.conn-31 rtt:vector ETV
attr interpolationmode sample-hold
vector 156 scenario.client0.tcp.conn-31 srtt:vector ETV
attr interpolationmode sample-hold
vector 157 scenario.client0.tcp.conn-31 rttvar:vector ETV
attr interpolationmode sample-hold
vector 158 scenario.client0.tcp.conn-31 rto:vector ETV
attr interpolationmode sample-hold
vector 159 scenario.client0.tcp.conn-31 cwnd:vector ETV
attr interpolationmode sample-hold
vector 160 scenario.client0.tcp.conn-31 ssthresh:vector ETV
attr interpolationmode sample-hold
vector 161 scenario.client0.tcp.conn-31 dupAcks:vector ETV
attr interpolationmode sample-hold
vector 162 scenario.client0.tcp.conn-33 tcpRcvQueueBytes:vector ETV
attr interpolationmode sample-hold
vector 163 scenario.client0.tcp.conn-33 rcvAdv:vector ETV
attr interpolationmode sample-hold
vector 164 scenario.client0.tcp.conn-33 rcvWnd:vector ETV
attr interpolationmode sample-hold
vector 165 scenario.client0.tcp.conn-33 sndAck:vector ETV
attr interpolationmode sample-hold
vector 166 scenario.client0.ppp[1].ppp rcvdPkFromHl:vector(packetBytes) ETV
attr interpolationmode none
attr source packetReceivedFromUpper
attr title "packets received from higher layer, vector(packetBytes)"
vector 167 scenario.client0.ppp[1].ppp.queue packetPushed:vector(packetBytes) ETV
attr interpolationmode none
attr title "packet pushed, vector(packetBytes)"
vector 168 scenario.client0.ppp[1].ppp.queue queueLength:vector ETV
attr interpolationmode sample-hold
attr source "count(packetPushed) - count(packetPopped) - count(packetRemoved) - count(packetDropped)"
attr title "queue length, vector"
vector 169 scenario.client0.ppp[1].ppp.queue packetPopped:vector(packetBytes) ETV
attr interpolationmode none
attr title "packet popped, vector(packetBytes)"
vector 170 scenario.client0.ppp[1].ppp.queue queueingTime:vector ETV
attr interpolationmode none
attr source queueingTime(packetPopped)
attr title "queueing times, vector"
attr unit s
vector 171 scenario.client0.ppp[1].ppp txPk:vector(packetBytes) ETV
attr interpolationmode none
attr source packetSentToLower
attr title "packets transmitted, vector(packetBytes)"
vector 172 scenario.client2.ppp[0].ppp rxPkOk:vector(packetBytes) ETV
attr interpolationmode none
attr source rxPkOk
attr title "packets received OK, vector(packetBytes)"
vector 173 scenario.client2.ppp[0].ppp passedUpPk:vector(packetBytes) ETV
attr interpolationmode none
attr source packetSentToUpper
attr title "packets passed to higher layer, vector(packetBytes)"
vector 174 scenario.client2.tcp.conn-2 rcvSeq:vector ETV
attr interpolationmode sample-hold
vector 175 scenario.client2.tcp.conn-2 rcvAck:vector ETV
attr interpolationmode sample-hold
vector 176 scenario.client2.tcp.conn-34 rcvAdv:vector ETV
attr interpolationmode sample-hold
vector 177 scenario.client2.tcp.conn-34 sndWnd:vector ETV
attr interpolationmode sample-hold
vector 178 scenario.client2.tcp.conn-34 tcpRcvQueueBytes:vector ETV
attr interpolationmode sample-hold
vector 179 scenario.client2.tcp.conn-34 rcvWnd:vector ETV
attr interpolationmode sample-hold
vector 180 scenario.client2.tcp.conn-34 sndAck:vector ETV
attr interpolationmode sample-hold
vector 181 scenario.client2.ppp[0].ppp rcvdPkFromHl:vector(packetBytes) ETV
attr interpolationmode none
attr source packetReceivedFromUpper
attr title "packets received from higher layer, vector(packetBytes)"
vector 182 scenario.client2.ppp[0].ppp.queue packetPushed:vector(packetBytes) ETV
attr interpolationmode none
attr title "packet pushed, vector(packetBytes)"
vector 183 scenario.client2.ppp[0].ppp.queue queueLength:vector ETV
attr interpolationmode sample-hold
attr source "count(packetPushed) - count(packetPopped) - count(packetRemoved) - count(packetDropped)"
attr title "queue length, vector"
vector 184 scenario.client2.ppp[0].ppp.queue packetPopped:vector(packetBytes) ETV
attr interpolationmode none
attr title "packet popped, vector(packetBytes)"
vector 185 scenario.client2.ppp[0].ppp.queue queueingTime:vector ETV
attr interpolationmode none
attr source queueingTime(packetPopped)
attr title "queueing times, vector"
attr unit s
vector 186 scenario.client2.ppp[0].ppp txPk:vector(packetBytes) ETV
attr interpolationmode none
attr source packetSentToLower
attr title "packets transmitted, vector(packetBytes)"
vector 187 scenario.client0.ppp[1].ppp rxPkOk:vector(packetBytes) ETV
attr interpolationmode none
attr source rxPkOk
attr title "packets received OK, vector(packetBytes)"
vector 188 scenario.client0.ppp[1].ppp passedUpPk:vector(packetBytes) ETV
attr interpolationmode none
attr source packetSentToUpper
attr title "packets passed to higher layer, vector(packetBytes)"
vector 189 scenario.client0.tcp.conn-33 rcvSeq:vector ETV
attr interpolationmode sample-hold
vector 190 scenario.client0.tcp.conn-33 rcvAck:vector ETV
attr interpolationmode sample-hold
vector 191 scenario.client0.tcp.conn-33 sndWnd:vector ETV
attr interpolationmode sample-hold
vector 192 scenario.client0.tcp.conn-33 unacked:vector ETV
attr interpolationmode sample-hold
vector 193 scenario.client2.tcp.conn-34 rcvSeq:vector ETV
attr interpolationmode sample-hold
vector 194 scenario.client2.tcp.conn-34 rcvAck:vector ETV
attr interpolationmode sample-hold
vector 195 scenario.client2.tcp.conn-34 unacked:vector ETV
attr interpolationmode sample-hold
vector 196 scenario.client2.tcp.conn-34 cwnd:vector ETV
attr interpolationmode sample-hold
vector 197 scenario.client2.tcp.conn-34 ssthresh:vector ETV
attr interpolationmode sample-hold
vector 198 scenario.client2.tcp.conn-34 dupAcks:vector ETV
attr interpolationmode sample-hold
vector 199 scenario.client0.tcp.conn-33 rtt:vector ETV
attr interpolationmode sample-hold
vector 200 scenario.client0.tcp.conn-33 srtt:vector ETV
attr interpolationmode sample-hold
vector 201 scenario.client0.tcp.conn-33 rttvar:vector ETV
attr interpolationmode sample-hold
vector 202 scenario.client0.tcp.conn-33 rto:vector ETV
attr interpolationmode sample-hold
vector 203 scenario.client0.tcp.conn-33 cwnd:vector ETV
attr interpolationmode sample-hold
vector 204 scenario.client0.tcp.conn-33 ssthresh:vector ETV
attr interpolationmode sample-hold
vector 205 scenario.client0.tcp.conn-33 dupAcks:vector ETV
attr interpolationmode sample-hold
vector 206 scenario.client3.tcp.conn-35 tcpRcvQueueBytes:vector ETV
attr interpolationmode sample-hold
vector 207 scenario.client3.tcp.conn-35 rcvAdv:vector ETV
attr interpolationmode sample-hold
vector 208 scenario.client3.tcp.conn-35 rcvWnd:vector ETV
attr interpolationmode sample-hold
vector 209 scenario.client3.tcp.conn-35 sndAck:vector ETV
attr interpolationmode sample-hold
vector 210 scenario.client3.ppp[2].ppp rcvdPkFromHl:vector(packetBytes) ETV
attr interpolationmode none
attr source packetReceivedFromUpper
attr title "packets received from higher layer, vector(packetBytes)"
vector 211 scenario.client3.ppp[2].ppp.queue packetPushed:vector(packetBytes) ETV
attr interpolationmode none
attr title "packet pushed, vector(packetBytes)"
vector 212 scenario.client3.ppp[2].ppp.queue queueLength:vector ETV
attr interpolationmode sample-hold
attr source "count(packetPushed) - count(packetPopped) - count(packetRemoved) - count(packetDropped)"
attr title "queue length, vector"
vector 213 scenario.client3.ppp[2].ppp.queue packetPopped:vector(packetBytes) ETV
attr interpolationmode none
attr title "packet popped, vector(packetBytes)"
vector 214 scenario.client3.ppp[2].ppp.queue queueingTime:vector ETV
attr interpolationmode none
attr source queueingTime(packetPopped)
attr title "queueing times, vector"
attr unit s
vector 215 scenario.client3.ppp[2].ppp txPk:vector(packetBytes) ETV
attr interpolationmode none
attr source packetSentToLower
attr title "packets transmitted, vector(packetBytes)"
vector 216 scenario.client2.ppp[2].ppp rxPkOk:vector(packetBytes) ETV
attr interpolationmode none
attr source rxPkOk
attr title "packets received OK, vector(packetBytes)"
vector 217 scenario.client2.ppp[2].ppp passedUpPk:vector(packetBytes) ETV
attr interpolationmode none
attr source packetSentToUpper
attr title "packets passed to higher layer, vector(packetBytes)"
vector 218 scenario.client2.tcp.conn-36 rcvAdv:vector ETV
attr interpolationmode sample-hold
vector 219 scenario.client2.tcp.conn-36 sndWnd:vector ETV
attr interpolationmode sample-hold
vector 220 scenario.client2.tcp.conn-36 tcpRcvQueueBytes:vector ETV
attr interpolationmode sample-hold
vector 221 scenario.client2.tcp.conn-36 rcvWnd:vector ETV
attr interpolationmode sample-hold
vector 222 scenario.client2.tcp.conn-36 sndAck:vector ETV
attr interpolationmode sample-hold
vector 223 scenario.client2.ppp[2].ppp rcvdPkFromHl:vector(packetBytes) ETV
attr interpolationmode none
attr source packetReceivedFromUpper
attr title "packets received from higher layer, vector(packetBytes)"
vector 224 scenario.client2.ppp[2].ppp.queue packetPushed:vector(packetBytes) ETV
attr interpolationmode none
attr title "packet pushed, vector(packetBytes)"
vector 225 scenario.client2.ppp[2].ppp.queue queueLength:vector ETV
attr interpolationmode sample-hold
attr source "count(packetPushed) - count(packetPopped) - count(packetRemoved) - count(packetDropped)"
attr title "queue length, vector"
vector 226 scenario.client2.ppp[2].ppp.queue packetPopped:vector(packetBytes) ETV
attr interpolationmode none
attr title "packet popped, vector(packetBytes)"
vector 227 scenario.client2.ppp[2].ppp.queue queueingTime:vector ETV
attr interpolationmode none
attr source queueingTime(packetPopped)
attr title "queueing times, vector"
attr unit s
vector 228 scenario.client2.ppp[2].ppp txPk:vector(packetBytes) ETV
attr interpolationmode none
attr source packetSentToLower
attr title "packets transmitted, vector(packetBytes)"
vector 229 scenario.client3.ppp[2].ppp rxPkOk:vector(packetBytes) ETV
attr interpolationmode none
attr source rxPkOk
attr title "packets received OK, vector(packetBytes)"
vector 230 scenario.client3.ppp[2].ppp passedUpPk:vector(packetBytes) ETV
attr interpolationmode none
attr source packetSentToUpper
attr title "packets passed to higher layer, vector(packetBytes)"
vector 231 scenario.client3.tcp.conn-35 rcvSeq:vector ETV
attr interpolationmode sample-hold
vector 232 scenario.client3.tcp.conn-35 rcvAck:vector ETV
attr interpolationmode sample-hold
vector 233 scenario.client3.tcp.conn-35 sndWnd:vector ETV
attr interpolationmode sample-hold
vector 234 scenario.client3.tcp.conn-35 unacked:vector ETV
attr interpolationmode sample-hold
vector 235 scenario.client2.tcp.conn-36 rcvSeq:vector ETV
attr interpolationmode sample-hold
vector 236 scenario.client2.tcp.conn-36 rcvAck:vector ETV
attr interpolationmode sample-hold
vector 237 scenario.client2.tcp.conn-36 unacked:vector ETV
attr interpolationmode sample-hold
vector 238 scenario.client2.tcp.conn-36 cwnd:vector ETV
attr interpolationmode sample-hold
vector 239 scenario.client2.tcp.conn-36 ssthresh:vector ETV
attr interpolationmode sample-hold
vector 240 scenario.client2.tcp.conn-36 dupAcks:vector ETV
attr interpolationmode sample-hold
vector 241 scenario.client3.tcp.conn-35 rtt:vector ETV
attr interpolationmode sample-hold
vector 242 scenario.client3.tcp.conn-35 srtt:vector ETV
attr interpolationmode sample-hold
vector 243 scenario.client3.tcp.conn-35 rttvar:vector ETV
attr interpolationmode sample-hold
vector 244 scenario.client3.tcp.conn-35 rto:vector ETV
attr interpolationmode sample-hold
vector 245 scenario.client3.tcp.conn-35 cwnd:vector ETV
attr interpolationmode sample-hold
vector 246 scenario.client3.tcp.conn-35 ssthresh:vector ETV
attr interpolationmode sample-hold
vector 247 scenario.client3.tcp.conn-35 dupAcks:vector ETV
attr interpolationmode sample-hold
vector 248 scenario.client3.tcp.conn-37 tcpRcvQueueBytes:vector ETV
attr interpolationmode sample-hold
vector 249 scenario.client3.tcp.conn-37 rcvAdv:vector ETV
attr interpolationmode sample-hold
vector 250 scenario.client3.tcp.conn-37 rcvWnd:vector ETV
attr interpolationmode sample-hold
vector 251 scenario.client3.tcp.conn-37 sndAck:vector ETV
attr interpolationmode sample-hold
vector 252 scenario.client3.ppp[1].ppp rcvdPkFromHl:vector(packetBytes) ETV
attr interpolationmode none
attr source packetReceivedFromUpper
attr title "packets received from higher layer, vector(packetBytes)"
vector 253 scenario.client3.ppp[1].ppp.queue packetPushed:vector(packetBytes) ETV
attr interpolationmode none
attr title "packet pushed, vector(packetBytes)"
vector 254 scenario.client3.ppp[1].ppp.queue queueLength:vector ETV
attr interpolationmode sample-hold
attr source "count(packetPushed) - count(packetPopped) - count(packetRemoved) - count(packetDropped)"
attr title "queue length, vector"
vector 255 scenario.client3.ppp[1].ppp.queue packetPopped:vector(packetBytes) ETV
attr interpolationmode none
attr title "packet popped, vector(packetBytes)"
vector 256 scenario.client3.ppp[1].ppp.queue queueingTime:vector ETV
attr interpolationmode none
attr source queueingTime(packetPopped)
attr title "queueing times, vector"
attr unit s
vector 257 scenario.client3.ppp[1].ppp txPk:vector(packetBytes) ETV
attr interpolationmode none
attr source packetSentToLower
attr title "packets transmitted, vector(packetBytes)"
vector 258 scenario.client1.ppp[2].ppp rxPkOk:vector(packetBytes) ETV
attr interpolationmode none
attr source rxPkOk
attr title "packets received OK, vector(packetBytes)"
vector 259 scenario.client1.ppp[2].ppp passedUpPk:vector(packetBytes) ETV
attr interpolationmode none
attr source packetSentToUpper
attr title "packets passed to higher layer, vector(packetBytes)"
vector 260 scenario.client1.tcp.conn-38 rcvAdv:vector ETV
attr interpolationmode sample-hold
vector 261 scenario.client1.tcp.conn-38 sndWnd:vector ETV
attr interpolationmode sample-hold
vector 262 scenario.client1.tcp.conn-38 tcpRcvQueueBytes:vector ETV
attr interpolationmode sample-hold
vector 263 scenario.client1.tcp.conn-38 rcvWnd:vector ETV
attr interpolationmode sample-hold
vector 264 scenario.client1.tcp.conn-38 sndAck:vector ETV
attr interpolationmode sample-hold
vector 265 scenario.client1.ppp[2].ppp rcvdPkFromHl:vector(packetBytes) ETV
attr interpolationmode none
attr source packetReceivedFromUpper
attr title "packets received from higher layer, vector(packetBytes)"
vector 266 scenario.client1.ppp[2].ppp.queue packetPushed:vector(packetBytes) ETV
attr interpolationmode none
attr title "packet pushed, vector(packetBytes)"
vector 267 scenario.client1.ppp[2].ppp.queue queueLength:vector ETV
attr interpolationmode sample-hold
attr source "count(packetPushed) - count(packetPopped) - count(packetRemoved) - count(packetDropped)"
attr title "queue length, vector"
vector 268 scenario.client1.ppp[2].ppp.queue packetPopped:vector(packetBytes) ETV
attr interpolationmode none
attr title "packet popped, vector(packetBytes)"
vector 269 scenario.client1.ppp[2].ppp.queue queueingTime:vector ETV
attr interpolationmode none
attr source queueingTime(packetPopped)
attr title "queueing times, vector"
attr unit s
vector 270 scenario.client1.ppp[2].ppp txPk:vector(packetBytes) ETV
attr interpolationmode none
attr source packetSentToLower
attr title "packets transmitted, vector(packetBytes)"
vector 271 scenario.client3.ppp[1].ppp rxPkOk:vector(packetBytes) ETV
attr interpolationmode none
attr source rxPkOk
attr title "packets received OK, vector(packetBytes)"
vector 272 scenario.client3.ppp[1].ppp passedUpPk:vector(packetBytes) ETV
attr interpolationmode none
attr source packetSentToUpper
attr title "packets passed to higher layer, vector(packetBytes)"
vector 273 scenario.client3.tcp.conn-37 rcvSeq:vector ETV
attr interpolationmode sample-hold
vector 274 scenario.client3.tcp.conn-37 rcvAck:vector ETV
attr interpolationmode sample-hold
vector 275 scenario.client3.tcp.conn-37 sndWnd:vector ETV
attr interpolationmode sample-hold
vector 276 scenario.client3.tcp.conn-37 unacked:vector ETV
attr interpolationmode sample-hold
vector 277 scenario.client1.tcp.conn-38 rcvSeq:vector ETV
attr interpolationmode sample-hold
vector 278 scenario.client1.tcp.conn-38 rcvAck:vector ETV
attr interpolationmode sample-hold
vector 279 scenario.client1.tcp.conn-38 unacked:vector ETV
attr interpolationmode sample-hold
vector 280 scenario.client1.tcp.conn-38 cwnd:vector ETV
attr interpolationmode sample-hold
vector 281 scenario.client1.tcp.conn-38 ssthresh:vector ETV
attr interpolationmode sample-hold
vector 282 scenario.client1.tcp.conn-38 dupAcks:vector ETV
attr interpolationmode sample-hold
vector 283 scenario.client3.tcp.conn-37 rtt:vector ETV
attr interpolationmode sample-hold
vector 284 scenario.client3.tcp.conn-37 srtt:vector ETV
attr interpolationmode sample-hold
vector 285 scenario.client3.tcp.conn-37 rttvar:vector ETV
attr interpolationmode sample-hold
vector 286 scenario.client3.tcp.conn-37 rto:vector ETV
attr interpolationmode sample-hold
vector 287 scenario.client3.tcp.conn-37 cwnd:vector ETV
attr interpolationmode sample-hold
vector 288 scenario.client3.tcp.conn-37 ssthresh:vector ETV
attr interpolationmode sample-hold
vector 289 scenario.client3.tcp.conn-37 dupAcks:vector ETV
attr interpolationmode sample-hold
vector 290 scenario.client2.tcp.conn-39 tcpRcvQueueBytes:vector ETV
attr interpolationmode sample-hold
vector 291 scenario.client2.tcp.conn-39 rcvAdv:vector ETV
attr interpolationmode sample-hold
vector 292 scenario.client2.tcp.conn-39 rcvWnd:vector ETV
attr interpolationmode sample-hold
vector 293 scenario.client2.tcp.conn-39 sndAck:vector ETV
attr interpolationmode sample-hold
vector 294 scenario.client0.tcp.conn-40 rcvAdv:vector ETV
attr interpolationmode sample-hold
vector 295 scenario.client0.tcp.conn-40 sndWnd:vector ETV
attr interpolationmode sample-hold
vector 296 scenario.client0.tcp.conn-40 tcpRcvQueueBytes:vector ETV
attr interpolationmode sample-hold
vector 297 scenario.client0.tcp.conn-40 rcvWnd:vector ETV
attr interpolationmode sample-hold
vector 298 scenario.client0.tcp.conn-40 sndAck:vector ETV
attr interpolationmode sample-hold
vector 299 scenario.client2.tcp.conn-39 rcvSeq:vector ETV
attr interpolationmode sample-hold
vector 300 scenario.client2.tcp.conn-39 rcvAck:vector ETV
attr interpolationmode sample-hold
vector 301 scenario.client2.tcp.conn-39 sndWnd:vector ETV
attr interpolationmode sample-hold
vector 302 scenario.client2.tcp.conn-39 unacked:vector ETV
attr interpolationmode sample-hold
vector 303 scenario.client0.tcp.conn-40 rcvSeq:vector ETV
attr interpolationmode sample-hold
vector 304 scenario.client0.tcp.conn-40 rcvAck:vector ETV
attr interpolationmode sample-hold
vector 305 scenario.client0.tcp.conn-40 unacked:vector ETV
attr interpolationmode sample-hold
vector 306 scenario.client0.tcp.conn-40 cwnd:vector ETV
attr interpolationmode sample-hold
vector 307 scenario.client0.tcp.conn-40 ssthresh:vector ETV
attr interpolationmode sample-hold
vector 308 scenario.client0.tcp.conn-40 dupAcks:vector ETV
attr interpolationmode sample-hold
vector 309 scenario.client2.tcp.conn-39 rtt:vector ETV
attr interpolationmode sample-hold
vector 310 scenario.client2.tcp.conn-39 srtt:vector ETV
attr interpolationmode sample-hold
vector 311 scenario.client2.tcp.conn-39 rttvar:vector ETV
attr interpolationmode sample-hold
vector 312 scenario.client2.tcp.conn-39 rto:vector ETV
attr interpolationmode sample-hold
vector 313 scenario.client2.tcp.conn-39 cwnd:vector ETV
attr interpolationmode sample-hold
vector 314 scenario.client2.tcp.conn-39 ssthresh:vector ETV
attr interpolationmode sample-hold
vector 315 scenario.client2.tcp.conn-39 dupAcks:vector ETV
attr interpolationmode sample-hold
vector 316 scenario.client1.tcp.conn-41 tcpRcvQueueBytes:vector ETV
attr interpolationmode sample-hold
vector 317 scenario.client1.tcp.conn-41 rcvAdv:vector ETV
attr interpolationmode sample-hold
vector 318 scenario.client1.tcp.conn-41 rcvWnd:vector ETV
attr interpolationmode sample-hold
vector 319 scenario.client1.tcp.conn-41 sndAck:vector ETV
attr interpolationmode sample-hold
vector 320 scenario.client3.tcp.conn-42 rcvAdv:vector ETV
attr interpolationmode sample-hold
vector 321 scenario.client3.tcp.conn-42 sndWnd:vector ETV
attr interpolationmode sample-hold
vector 322 scenario.client3.tcp.conn-42 tcpRcvQueueBytes:vector ETV
attr interpolationmode sample-hold
vector 323 scenario.client3.tcp.conn-42 rcvWnd:vector ETV
attr interpolationmode sample-hold
vector 324 scenario.client3.tcp.conn-42 sndAck:vector ETV
attr interpolationmode sample-hold
vector 325 scenario.client1.tcp.conn-41 rcvSeq:vector ETV
attr interpolationmode sample-hold
vector 326 scenario.client1.tcp.conn-41 rcvAck:vector ETV
attr interpolationmode sample-hold
vector 327 scenario.client1.tcp.conn-41 sndWnd:vector ETV
attr interpolationmode sample-hold
vector 328 scenario.client1.tcp.conn-41 unacked:vector ETV
attr interpolationmode sample-hold
vector 329 scenario.client3.tcp.conn-42 rcvSeq:vector ETV
attr interpolationmode sample-hold
vector 330 scenario.client3.tcp.conn-42 rcvAck:vector ETV
attr interpolationmode sample-hold
vector 331 scenario.client3.tcp.conn-42 unacked:vector ETV
attr interpolationmode sample-hold
vector 332 scenario.client3.tcp.conn-42 cwnd:vector ETV
attr interpolationmode sample-hold
vector 333 scenario.client3.tcp.conn-42 ssthresh:vector ETV
attr interpolationmode sample-hold
vector 334 scenario.client3.tcp.conn-42 dupAcks:vector ETV
attr interpolationmode sample-hold
vector 335 scenario.client1.tcp.conn-41 rtt:vector ETV
attr interpolationmode sample-hold
vector 336 scenario.client1.tcp.conn-41 srtt:vector ETV
attr interpolationmode sample-hold
vector 337 scenario.client1.tcp.conn-41 rttvar:vector ETV
attr interpolationmode sample-hold
vector 338 scenario.client1.tcp.conn-41 rto:vector ETV
attr interpolationmode sample-hold
vector 339 scenario.client1.tcp.conn-41 cwnd:vector ETV
attr interpolationmode sample-hold
vector 340 scenario.client1.tcp.conn-41 ssthresh:vector ETV
attr interpolationmode sample-hold
vector 341 scenario.client1.tcp.conn-41 dupAcks:vector ETV
attr interpolationmode sample-hold
vector 342 scenario.client2.tcp.conn-43 tcpRcvQueueBytes:vector ETV
attr interpolationmode sample-hold
vector 343 scenario.client2.tcp.conn-43 rcvAdv:vector ETV
attr interpolationmode sample-hold
vector 344 scenario.client2.tcp.conn-43 rcvWnd:vector ETV
attr interpolationmode sample-hold
vector 345 scenario.client2.tcp.conn-43 sndAck:vector ETV
attr interpolationmode sample-hold
vector 346 scenario.client3.tcp.conn-44 rcvAdv:vector ETV
attr interpolationmode sample-hold
vector 347 scenario.client3.tcp.conn-44 sndWnd:vector ETV
attr interpolationmode sample-hold
vector 348 scenario.client3.tcp.conn-44 tcpRcvQueueBytes:vector ETV
attr interpolationmode sample-hold
vector 349 scenario.client3.tcp.conn-44 rcvWnd:vector ETV
attr interpolationmode sample-hold
vector 350 scenario.client3.tcp.conn-44 sndAck:vector ETV
attr interpolationmode sample-hold
vector 351 scenario.client2.tcp.conn-43 rcvSeq:vector ETV
attr interpolationmode sample-hold
vector 352 scenario.client2.tcp.conn-43 rcvAck:vector ETV
attr interpolationmode sample-hold
vector 353 scenario.client2.tcp.conn-43 sndWnd:vector ETV
attr interpolationmode sample-hold
vector 354 scenario.client2.tcp.conn-43 unacked:vector ETV
attr interpolationmode sample-hold
vector 355 scenario.client3.tcp.conn-44 rcvSeq:vector ETV
attr interpolationmode sample-hold
vector 356 scenario.client3.tcp.conn-44 rcvAck:vector ETV
attr interpolationmode sample-hold
vector 357 scenario.client3.tcp.conn-44 unacked:vector ETV
attr interpolationmode sample-hold
vector 358 scenario.client3.tcp.conn-44 cwnd:vector ETV
attr interpolationmode sample-hold
vector 359 scenario.client3.tcp.conn-44 ssthresh:vector ETV
attr interpolationmode sample-hold
vector 360 scenario.client3.tcp.conn-44 dupAcks:vector ETV
attr interpolationmode sample-hold
vector 361 scenario.client2.tcp.conn-43 rtt:vector ETV
attr interpolationmode sample-hold
vector 362 scenario.client2.tcp.conn-43 srtt:vector ETV
attr interpolationmode sample-hold
vector 363 scenario.client2.tcp.conn-43 rttvar:vector ETV
attr interpolationmode sample-hold
vector 364 scenario.client2.tcp.conn-43 rto:vector ETV
attr interpolationmode sample-hold
vector 365 scenario.client2.tcp.conn-43 cwnd:vector ETV
attr interpolationmode sample-hold
vector 366 scenario.client2.tcp.conn-43 ssthresh:vector ETV
attr interpolationmode sample-hold
vector 367 scenario.client2.tcp.conn-43 dupAcks:vector ETV
attr interpolationmode sample-hold
vector 368 scenario.client1.tcp.conn-45 tcpRcvQueueBytes:vector ETV
attr interpolationmode sample-hold
vector 369 scenario.client1.tcp.conn-45 rcvAdv:vector ETV
attr interpolationmode sample-hold
vector 370 scenario.client1.tcp.conn-45 rcvWnd:vector ETV
attr interpolationmode sample-hold
vector 371 scenario.client1.tcp.conn-45 sndAck:vector ETV
attr interpolationmode sample-hold
vector 372 scenario.client1.ppp[1].ppp rcvdPkFromHl:vector(packetBytes) ETV
attr interpolationmode none
attr source packetReceivedFromUpper
attr title "packets received from higher layer, vector(packetBytes)"
vector 373 scenario.client1.ppp[1].ppp.queue packetPushed:vector(packetBytes) ETV
attr interpolationmode none
attr title "packet pushed, vector(packetBytes)"
vector 374 scenario.client1.ppp[1].ppp.queue queueLength:vector ETV
attr interpolationmode sample-hold
attr source "count(packetPushed) - count(packetPopped) - count(packetRemoved) - count(packetDropped)"
attr title "queue length, vector"
vector 375 scenario.client1.ppp[1].ppp.queue packetPopped:vector(packetBytes) ETV
attr interpolationmode none
attr title "packet popped, vector(packetBytes)"
vector 376 scenario.client1.ppp[1].ppp.queue queueingTime:vector ETV
attr interpolationmode none
attr source queueingTime(packetPopped)
attr title "queueing times, vector"
attr unit s
vector 377 scenario.client1.ppp[1].ppp txPk:vector(packetBytes) ETV
attr interpolationmode none
attr source packetSentToLower
attr title "packets transmitted, vector(packetBytes)"
vector 378 scenario.client2.ppp[1].ppp rxPkOk:vector(packetBytes) ETV
attr interpolationmode none
attr source rxPkOk
attr title "packets received OK, vector(packetBytes)"
vector 379 scenario.client2.ppp[1].ppp passedUpPk:vector(packetBytes) ETV
attr interpolationmode none
attr source packetSentToUpper
attr title "packets passed to higher layer, vector(packetBytes)"
vector 380 scenario.client2.tcp.conn-46 rcvAdv:vector ETV
attr interpolationmode sample-hold
vector 381 scenario.client2.tcp.conn-46 sndWnd:vector ETV
attr interpolationmode sample-hold
vector 382 scenario.client2.tcp.conn-46 tcpRcvQueueBytes:vector ETV
attr interpolationmode sample-hold
vector 383 scenario.client2.tcp.conn-46 rcvWnd:vector ETV
attr interpolationmode sample-hold
vector 384 scenario.client2.tcp.conn-46 sndAck:vector ETV
attr interpolationmode sample-hold
vector 385 scenario.client2.ppp[1].ppp rcvdPkFromHl:vector(packetBytes) ETV
attr interpolationmode none
attr source packetReceivedFromUpper
attr title "packets received from higher layer, vector(packetBytes)"
vector 386 scenario.client2.ppp[1].ppp.queue packetPushed:vector(packetBytes) ETV
attr interpolationmode none
attr title "packet pushed, vector(packetBytes)"
vector 387 scenario.client2.ppp[1].ppp.queue queueLength:vector ETV
attr interpolationmode sample-hold
attr source "count(packetPushed) - count(packetPopped) - count(packetRemoved) - count(packetDropped)"
attr title "queue length, vector"
vector 388 scenario.client2.ppp[1].ppp.queue packetPopped:vector(packetBytes) ETV
attr interpolationmode none
attr title "packet popped, vector(packetBytes)"
vector 389 scenario.client2.ppp[1].ppp.queue queueingTime:vector ETV
attr interpolationmode none
attr source queueingTime(packetPopped)
attr title "queueing times, vector"
attr unit s
vector 390 scenario.client2.ppp[1].ppp txPk:vector(packetBytes) ETV
attr interpolationmode none
attr source packetSentToLower
attr title "packets transmitted, vector(packetBytes)"
vector 391 scenario.client1.ppp[1].ppp rxPkOk:vector(packetBytes) ETV
attr interpolationmode none
attr source rxPkOk
attr title "packets received OK, vector(packetBytes)"
vector 392 scenario.client1.ppp[1].ppp passedUpPk:vector(packetBytes) ETV
attr interpolationmode none
attr source packetSentToUpper
attr title "packets passed to higher layer, vector(packetBytes)"
vector 393 scenario.client1.tcp.conn-45 rcvSeq:vector ETV
attr interpolationmode sample-hold
vector 394 scenario.client1.tcp.conn-45 rcvAck:vector ETV
attr interpolationmode sample-hold
vector 395 scenario.client1.tcp.conn-45 sndWnd:vector ETV
attr interpolationmode sample-hold
vector 396 scenario.client1.tcp.conn-45 unacked:vector ETV
attr interpolationmode sample-hold
vector 397 scenario.client2.tcp.conn-46 rcvSeq:vector ETV
attr interpolationmode sample-hold
vector 398 scenario.client2.tcp.conn-46 rcvAck:vector ETV
attr interpolationmode sample-hold
vector 399 scenario.client2.tcp.conn-46 unacked:vector ETV
attr interpolationmode sample-hold
vector 400 scenario.client2.tcp.conn-46 cwnd:vector ETV
attr interpolationmode sample-hold
vector 401 scenario.client2.tcp.conn-46 ssthresh:vector ETV
attr interpolationmode sample-hold
vector 402 scenario.client2.tcp.conn-46 dupAcks:vector ETV
attr interpolationmode sample-hold
vector 403 scenario.client1.tcp.conn-45 rtt:vector ETV
attr interpolationmode sample-hold
vector 404 scenario.client1.tcp.conn-45 srtt:vector ETV
attr interpolationmode sample-hold
vector 405 scenario.client1.tcp.conn-45 rttvar:vector ETV
attr interpolationmode sample-hold
vector 406 scenario.client1.tcp.conn-45 rto:vector ETV
attr interpolationmode sample-hold
vector 407 scenario.client1.tcp.conn-45 cwnd:vector ETV
attr interpolationmode sample-hold
vector 408 scenario.client1.tcp.conn-45 ssthresh:vector ETV
attr interpolationmode sample-hold
vector 409 scenario.client1.tcp.conn-45 dupAcks:vector ETV
attr interpolationmode sample-hold
vector 410 scenario.client2.tcp.conn-47 tcpRcvQueueBytes:vector ETV
attr interpolationmode sample-hold
vector 411 scenario.client2.tcp.conn-47 rcvAdv:vector ETV
attr interpolationmode sample-hold
vector 412 scenario.client2.tcp.conn-47 rcvWnd:vector ETV
attr interpolationmode sample-hold
vector 413 scenario.client2.tcp.conn-47 sndAck:vector ETV
attr interpolationmode sample-hold
vector 414 scenario.client1.tcp.conn-48 rcvAdv:vector ETV
attr interpolationmode sample-hold
vector 415 scenario.client1.tcp.conn-48 sndWnd:vector ETV
attr interpolationmode sample-hold
vector 416 scenario.client1.tcp.conn-48 tcpRcvQueueBytes:vector ETV
attr interpolationmode sample-hold
vector 417 scenario.client1.tcp.conn-48 rcvWnd:vector ETV
attr interpolationmode sample-hold
vector 418 scenario.client1.tcp.conn-48 sndAck:vector ETV
attr interpolationmode sample-hold
vector 419 scenario.client2.tcp.conn-47 rcvSeq:vector ETV
attr interpolationmode sample-hold
vector 420 scenario.client2.tcp.conn-47 rcvAck:vector ETV
attr interpolationmode sample-hold
vector 421 scenario.client2.tcp.conn-47 sndWnd:vector ETV
attr interpolationmode sample-hold
vector 422 scenario.client2.tcp.conn-47 unacked:vector ETV
attr interpolationmode sample-hold
vector 423 scenario.client1.tcp.conn-48 rcvSeq:vector ETV
attr interpolationmode sample-hold
vector 424 scenario.client1.tcp.conn-48 rcvAck:vector ETV
attr interpolationmode sample-hold
vector 425 scenario.client1.tcp.conn-48 unacked:vector ETV
attr interpolationmode sample-hold
vector 426 scenario.client1.tcp.conn-48 cwnd:vector ETV
attr interpolationmode sample-hold
vector 427 scenario.client1.tcp.conn-48 ssthresh:vector ETV
attr interpolationmode sample-hold
vector 428 scenario.client1.tcp.conn-48 dupAcks:vector ETV
attr interpolationmode sample-hold
vector 429 scenario.client2.tcp.conn-47 rtt:vector ETV
attr interpolationmode sample-hold
vector 430 scenario.client2.tcp.conn-47 srtt:vector ETV
attr interpolationmode sample-hold
vector 431 scenario.client2.tcp.conn-47 rttvar:vector ETV
attr interpolationmode sample-hold
vector 432 scenario.client2.tcp.conn-47 rto:vector ETV
attr interpolationmode sample-hold
vector 433 scenario.client2.tcp.conn-47 cwnd:vector ETV
attr interpolationmode sample-hold
vector 434 scenario.client2.tcp.conn-47 ssthresh:vector ETV
attr interpolationmode sample-hold
vector 435 scenario.client2.tcp.conn-47 dupAcks:vector ETV
attr interpolationmode sample-hold
vector 436 scenario.client3.tcp.conn-49 tcpRcvQueueBytes:vector ETV
attr interpolationmode sample-hold
vector 437 scenario.client3.tcp.conn-49 rcvAdv:vector ETV
attr interpolationmode sample-hold
vector 438 scenario.client3.tcp.conn-49 rcvWnd:vector ETV
attr interpolationmode sample-hold
vector 439 scenario.client3.tcp.conn-49 sndAck:vector ETV
attr interpolationmode sample-hold
vector 440 scenario.client3.ppp[3].ppp rcvdPkFromHl:vector(packetBytes) ETV
attr interpolationmode none
attr source packetReceivedFromUpper
attr title "packets received from higher layer, vector(packetBytes)"
vector 441 scenario.client3.ppp[3].ppp.queue packetPushed:vector(packetBytes) ETV
attr interpolationmode none
attr title "packet pushed, vector(packetBytes)"
vector 442 scenario.client3.ppp[3].ppp.queue queueLength:vector ETV
attr interpolationmode sample-hold
attr source "count(packetPushed) - count(packetPopped) - count(packetRemoved) - count(packetDropped)"
attr title "queue length, vector"
vector 443 scenario.client3.ppp[3].ppp.queue packetPopped:vector(packetBytes) ETV
attr interpolationmode none
attr title "packet popped, vector(packetBytes)"
vector 444 scenario.client3.ppp[3].ppp.queue queueingTime:vector ETV
attr interpolationmode none
attr source queueingTime(packetPopped)
attr title "queueing times, vector"
attr unit s
vector 445 scenario.client3.ppp[3].ppp txPk:vector(packetBytes) ETV
attr interpolationmode none
attr source packetSentToLower
attr title "packets transmitted, vector(packetBytes)"
vector 446 scenario.client4.ppp[3].ppp rxPkOk:vector(packetBytes) ETV
attr interpolationmode none
attr source rxPkOk
attr title "packets received OK, vector(packetBytes)"
vector 447 scenario.client4.ppp[3].ppp passedUpPk:vector(packetBytes) ETV
attr interpolationmode none
attr source packetSentToUpper
attr title "packets passed to higher layer, vector(packetBytes)"
vector 448 scenario.client4.tcp.conn-4 rcvSeq:vector ETV
attr interpolationmode sample-hold
vector 449 scenario.client4.tcp.conn-4 rcvAck:vector ETV
attr interpolationmode sample-hold
vector 450 scenario.client4.tcp.conn-50 rcvAdv:vector ETV
attr interpolationmode sample-hold
vector 451 scenario.client4.tcp.conn-50 sndWnd:vector ETV
attr interpolationmode sample-hold
vector 452 scenario.client4.tcp.conn-50 tcpRcvQueueBytes:vector ETV
attr interpolationmode sample-hold
vector 453 scenario.client4.tcp.conn-50 rcvWnd:vector ETV
attr interpolationmode sample-hold
vector 454 scenario.client4.tcp.conn-50 sndAck:vector ETV
attr interpolationmode sample-hold
vector 455 scenario.client4.ppp[3].ppp rcvdPkFromHl:vector(packetBytes) ETV
attr interpolationmode none
attr source packetReceivedFromUpper
attr title "packets received from higher layer, vector(packetBytes)"
vector 456 scenario.client4.ppp[3].ppp.queue packetPushed:vector(packetBytes) ETV
attr interpolationmode none
attr title "packet pushed, vector(packetBytes)"
vector 457 scenario.client4.ppp[3].ppp.queue queueLength:vector ETV
attr interpolationmode sample-hold
attr source "count(packetPushed) - count(packetPopped) - count(packetRemoved) - count(packetDropped)"
attr title "queue length, vector"
vector 458 scenario.client4.ppp[3].ppp.queue packetPopped:vector(packetBytes) ETV
attr interpolationmode none
attr title "packet popped, vector(packetBytes)"
vector 459 scenario.client4.ppp[3].ppp.queue queueingTime:vector ETV
attr interpolationmode none
attr source queueingTime(packetPopped)
attr title "queueing times, vector"
attr unit s
vector 460 scenario.client4.ppp[3].ppp txPk:vector(packetBytes) ETV
attr interpolationmode none
attr source packetSentToLower
attr title "packets transmitted, vector(packetBytes)"
vector 461 scenario.client3.ppp[3].ppp rxPkOk:vector(packetBytes) ETV
attr interpolationmode none
attr source rxPkOk
attr title "packets received OK, vector(packetBytes)"
vector 462 scenario.client3.ppp[3].ppp passedUpPk:vector(packetBytes) ETV
attr interpolationmode none
attr source packetSentToUpper
attr title "packets passed to higher layer, vector(packetBytes)"
vector 463 scenario.client3.tcp.conn-49 rcvSeq:vector ETV
attr interpolationmode sample-hold
vector 464 scenario.client3.tcp.conn-49 rcvAck:vector ETV
attr interpolationmode sample-hold
vector 465 scenario.client3.tcp.conn-49 sndWnd:vector ETV
attr interpolationmode sample-hold
vector 466 scenario.client3.tcp.conn-49 unacked:vector ETV
attr interpolationmode sample-hold
vector 467 scenario.client4.tcp.conn-50 rcvSeq:vector ETV
attr interpolationmode sample-hold
vector 468 scenario.client4.tcp.conn-50 rcvAck:vector ETV
attr interpolationmode sample-hold
vector 469 scenario.client4.tcp.conn-50 unacked:vector ETV
attr interpolationmode sample-hold
vector 470 scenario.client4.tcp.conn-50 cwnd:vector ETV
attr interpolationmode sample-hold
vector 471 scenario.client4.tcp.conn-50 ssthresh:vector ETV
attr interpolationmode sample-hold
vector 472 scenario.client4.tcp.conn-50 dupAcks:vector ETV
attr interpolationmode sample-hold
vector 473 scenario.client3.tcp.conn-49 rtt:vector ETV
attr interpolationmode sample-hold
vector 474 scenario.client3.tcp.conn-49 srtt:vector ETV
attr interpolationmode sample-hold
vector 475 scenario.client3.tcp.conn-49 rttvar:vector ETV
attr interpolationmode sample-hold
vector 476 scenario.client3.tcp.conn-49 rto:vector ETV
attr interpolationmode sample-hold
vector 477 scenario.client3.tcp.conn-49 cwnd:vector ETV
attr interpolationmode sample-hold
vector 478 scenario.client3.tcp.conn-49 ssthresh:vector ETV
attr interpolationmode sample-hold
vector 479 scenario.client3.tcp.conn-49 dupAcks:vector ETV
attr interpolationmode sample-hold
vector 480 scenario.client2.tcp.conn-51 tcpRcvQueueBytes:vector ETV
attr interpolationmode sample-hold
vector 481 scenario.client2.tcp.conn-51 rcvAdv:vector ETV
attr interpolationmode sample-hold
vector 482 scenario.client2.tcp.conn-51 rcvWnd:vector ETV
attr interpolationmode sample-hold
vector 483 scenario.client2.tcp.conn-51 sndAck:vector ETV
attr interpolationmode sample-hold
vector 484 scenario.client2.ppp[3].ppp rcvdPkFromHl:vector(packetBytes) ETV
attr interpolationmode none
attr source packetReceivedFromUpper
attr title "packets received from higher layer, vector(packetBytes)"
vector 485 scenario.client2.ppp[3].ppp.queue packetPushed:vector(packetBytes) ETV
attr interpolationmode none
attr title "packet pushed, vector(packetBytes)"
vector 486 scenario.client2.ppp[3].ppp.queue queueLength:vector ETV
attr interpolationmode sample-hold
attr source "count(packetPushed) - count(packetPopped) - count(packetRemoved) - count(packetDropped)"
attr title "queue length, vector"
vector 487 scenario.client2.ppp[3].ppp.queue packetPopped:vector(packetBytes) ETV
attr interpolationmode none
attr title "packet popped, vector(packetBytes)"
vector 488 scenario.client2.ppp[3].ppp.queue queueingTime:vector ETV
attr interpolationmode none
attr source queueingTime(packetPopped)
attr title "queueing times, vector"
attr unit s
vector 489 scenario.client2.ppp[3].ppp txPk:vector(packetBytes) ETV
attr interpolationmode none
attr source packetSentToLower
attr title "packets transmitted, vector(packetBytes)"
vector 490 scenario.client1.tcp.conn-52 tcpRcvQueueBytes:vector ETV
attr interpolationmode sample-hold
vector 491 scenario.client1.tcp.conn-52 rcvAdv:vector ETV
attr interpolationmode sample-hold
vector 492 scenario.client1.tcp.conn-52 rcvWnd:vector ETV
attr interpolationmode sample-hold
vector 493 scenario.client1.tcp.conn-52 sndAck:vector ETV
attr interpolationmode sample-hold
vector 494 scenario.client1.ppp[3].ppp rcvdPkFromHl:vector(packetBytes) ETV
attr interpolationmode none
attr source packetReceivedFromUpper
attr title "packets received from higher layer, vector(packetBytes)"
vector 495 scenario.client1.ppp[3].ppp.queue packetPushed:vector(packetBytes) ETV
attr interpolationmode none
attr title "packet pushed, vector(packetBytes)"
vector 496 scenario.client1.ppp[3].ppp.queue queueLength:vector ETV
attr interpolationmode sample-hold
attr source "count(packetPushed) - count(packetPopped) - count(packetRemoved) - count(packetDropped)"
attr title "queue length, vector"
vector 497 scenario.client1.ppp[3].ppp.queue packetPopped:vector(packetBytes) ETV
attr interpolationmode none
attr title "packet popped, vector(packetBytes)"
vector 498 scenario.client1.ppp[3].ppp.queue queueingTime:vector ETV
attr interpolationmode none
attr source queueingTime(packetPopped)
attr title "queueing times, vector"
attr unit s
vector 499 scenario.client1.ppp[3].ppp txPk:vector(packetBytes) ETV
attr interpolationmode none
attr source packetSentToLower
attr title "packets transmitted, vector(packetBytes)"
vector 500 scenario.client4.ppp[2].ppp rxPkOk:vector(packetBytes) ETV
attr interpolationmode none
attr source rxPkOk
attr title "packets received OK, vector(packetBytes)"
vector 501 scenario.client4.ppp[2].ppp passedUpPk:vector(packetBytes) ETV
attr interpolationmode none
attr source packetSentToUpper
attr title "packets passed to higher layer, vector(packetBytes)"
vector 502 scenario.client4.tcp.conn-53 rcvAdv:vector ETV
attr interpolationmode sample-hold
vector 503 scenario.client4.tcp.conn-53 sndWnd:vector ETV
attr interpolationmode sample-hold
vector 504 scenario.client4.tcp.conn-53 tcpRcvQueueBytes:vector ETV
attr interpolationmode sample-hold
vector 505 scenario.client4.tcp.conn-53 rcvWnd:vector ETV
attr interpolationmode sample-hold
vector 506 scenario.client4.tcp.conn-53 sndAck:vector ETV
attr interpolationmode sample-hold
vector 507 scenario.client4.ppp[2].ppp rcvdPkFromHl:vector(packetBytes) ETV
attr interpolationmode none
attr source packetReceivedFromUpper
attr title "packets received from higher layer, vector(packetBytes)"
vector 508 scenario.client4.ppp[2].ppp.queue packetPushed:vector(packetBytes) ETV
attr interpolationmode none
attr title "packet pushed, vector(packetBytes)"
vector 509 scenario.client4.ppp[2].ppp.queue queueLength:vector ETV
attr interpolationmode sample-hold
attr source "count(packetPushed) - count(packetPopped) - count(packetRemoved) - count(packetDropped)"
attr title "queue length, vector"
vector 510 scenario.client4.ppp[2].ppp.queue packetPopped:vector(packetBytes) ETV
attr interpolationmode none
attr title "packet popped, vector(packetBytes)"
vector 511 scenario.client4.ppp[2].ppp.queue queueingTime:vector ETV
attr interpolationmode none
attr source queueingTime(packetPopped)
attr title "queueing times, vector"
attr unit s
vector 512 scenario.client4.ppp[2].ppp txPk:vector(packetBytes) ETV
attr interpolationmode none
attr source packetSentToLower
attr title "packets transmitted, vector(packetBytes)"
vector 513 scenario.client4.ppp[1].ppp rxPkOk:vector(packetBytes) ETV
attr interpolationmode none
attr source rxPkOk
attr title "packets received OK, vector(packetBytes)"
vector 514 scenario.client4.ppp[1].ppp passedUpPk:vector(packetBytes) ETV
attr interpolationmode none
attr source packetSentToUpper
attr title "packets passed to higher layer, vector(packetBytes)"
vector 515 scenario.client4.tcp.conn-54 rcvAdv:vector ETV
attr interpolationmode sample-hold
vector 516 scenario.client4.tcp.conn-54 sndWnd:vector ETV
attr interpolationmode sample-hold
vector 517 scenario.client4.tcp.conn-54 tcpRcvQueueBytes:vector ETV
attr interpolationmode sample-hold
vector 518 scenario.client4.tcp.conn-54 rcvWnd:vector ETV
attr interpolationmode sample-hold
vector 519 scenario.client4.tcp.conn-54 sndAck:vector ETV
attr interpolationmode sample-hold
vector 520 scenario.client4.ppp[1].ppp rcvdPkFromHl:vector(packetBytes) ETV
attr interpolationmode none
attr source packetReceivedFromUpper
attr title "packets received from higher layer, vector(packetBytes)"
vector 521 scenario.client4.ppp[1].ppp.queue packetPushed:vector(packetBytes) ETV
attr interpolationmode none
attr title "packet pushed, vector(packetBytes)"
vector 522 scenario.client4.ppp[1].ppp.queue queueLength:vector ETV
attr interpolationmode sample-hold
attr source "count(packetPushed) - count(packetPopped) - count(packetRemoved) - count(packetDropped)"
attr title "queue length, vector"
vector 523 scenario.client4.ppp[1].ppp.queue packetPopped:vector(packetBytes) ETV
attr interpolationmode none
attr title "packet popped, vector(packetBytes)"
vector 524 scenario.client4.ppp[1].ppp.queue queueingTime:vector ETV
attr interpolationmode none
attr source queueingTime(packetPopped)
attr title "queueing times, vector"
attr unit s
vector 525 scenario.client4.ppp[1].ppp txPk:vector(packetBytes) ETV
attr interpolationmode none
attr source packetSentToLower
attr title "packets transmitted, vector(packetBytes)"
vector 526 scenario.client2.ppp[3].ppp rxPkOk:vector(packetBytes) ETV
attr interpolationmode none
attr source rxPkOk
attr title "packets received OK, vector(packetBytes)"
vector 527 scenario.client2.ppp[3].ppp passedUpPk:vector(packetBytes) ETV
attr interpolationmode none
attr source packetSentToUpper
attr title "packets passed to higher layer, vector(packetBytes)"
vector 528 scenario.client2.tcp.conn-51 rcvSeq:vector ETV
attr interpolationmode sample-hold
vector 529 scenario.client2.tcp.conn-51 rcvAck:vector ETV
attr interpolationmode sample-hold
vector 530 scenario.client2.tcp.conn-51 sndWnd:vector ETV
attr interpolationmode sample-hold
vector 531 scenario.client2.tcp.conn-51 unacked:vector ETV
attr interpolationmode sample-hold
vector 532 scenario.client1.ppp[3].ppp rxPkOk:vector(packetBytes) ETV
attr interpolationmode none
attr source rxPkOk
attr title "packets received OK, vector(packetBytes)"
vector 533 scenario.client1.ppp[3].ppp passedUpPk:vector(packetBytes) ETV
attr interpolationmode none
attr source packetSentToUpper
attr title "packets passed to higher layer, vector(packetBytes)"
vector 534 scenario.client1.tcp.conn-52 rcvSeq:vector ETV
attr interpolationmode sample-hold
vector 535 scenario.client1.tcp.conn-52 rcvAck:vector ETV
attr interpolationmode sample-hold
vector 536 scenario.client1.tcp.conn-52 sndWnd:vector ETV
attr interpolationmode sample-hold
vector 537 scenario.client1.tcp.conn-52 unacked:vector ETV
attr interpolationmode sample-hold
vector 538 scenario.client4.tcp.conn-53 rcvSeq:vector ETV
attr interpolationmode sample-hold
vector 539 scenario.client4.tcp.conn-53 rcvAck:vector ETV
attr interpolationmode sample-hold
vector 540 scenario.client4.tcp.conn-53 unacked:vector ETV
attr interpolationmode sample-hold
vector 541 scenario.client4.tcp.conn-53 cwnd:vector ETV
attr interpolationmode sample-hold
vector 542 scenario.client4.tcp.conn-53 ssthresh:vector ETV
attr interpolationmode sample-hold
vector 543 scenario.client4.tcp.conn-53 dupAcks:vector ETV
attr interpolationmode sample-hold
vector 544 scenario.client4.tcp.conn-54 rcvSeq:vector ETV
attr interpolationmode sample-hold
vector 545 scenario.client4.tcp.conn-54 rcvAck:vector ETV
attr interpolationmode sample-hold
vector 546 scenario.client4.tcp.conn-54 unacked:vector ETV
attr interpolationmode sample-hold
vector 547 scenario.client4.tcp.conn-54 cwnd:vector ETV
attr interpolationmode sample-hold
vector 548 scenario.client4.tcp.conn-54 ssthresh:vector ETV
attr interpolationmode sample-hold
vector 549 scenario.client4.tcp.conn-54 dupAcks:vector ETV
attr interpolationmode sample-hold
vector 550 scenario.client2.tcp.conn-51 rtt:vector ETV
attr interpolationmode sample-hold
vector 551 scenario.client2.tcp.conn-51 srtt:vector ETV
attr interpolationmode sample-hold
vector 552 scenario.client2.tcp.conn-51 rttvar:vector ETV
attr interpolationmode sample-hold
vector 553 scenario.client2.tcp.conn-51 rto:vector ETV
attr interpolationmode sample-hold
vector 554 scenario.client2.tcp.conn-51 cwnd:vector ETV
attr interpolationmode sample-hold
vector 555 scenario.client2.tcp.conn-51 ssthresh:vector ETV
attr interpolationmode sample-hold
vector 556 scenario.client2.tcp.conn-51 dupAcks:vector ETV
attr interpolationmode sample-hold
vector 557 scenario.client1.tcp.conn-52 rtt:vector ETV
attr interpolationmode sample-hold
vector 558 scenario.client1.tcp.conn-52 srtt:vector ETV
attr interpolationmode sample-hold
vector 559 scenario.client1.tcp.conn-52 rttvar:vector ETV
attr interpolationmode sample-hold
vector 560 scenario.client1.tcp.conn-52 rto:vector ETV
attr interpolationmode sample-hold
vector 561 scenario.client1.tcp.conn-52 cwnd:vector ETV
attr interpolationmode sample-hold
vector 562 scenario.client1.tcp.conn-52 ssthresh:vector ETV
attr interpolationmode sample-hold
vector 563 scenario.client1.tcp.conn-52 dupAcks:vector ETV
attr interpolationmode sample-hold
0	0	0	0
0	12	0.155827509384	1
0	13	0.156235509384	0
0	25	0.157643509384	1
0	26	0.158027509384	0
0	50	0.28257769512	1
0	51	0.28298569512	0
0	65	0.28436969512	1
0	68	0.28474569512	0
0	475	3.835352641377	1
0	476	3.835736641377	0
0	497	3.941800165654	1
0	498	3.942176165654	0
0	520	4.288825100131	1
0	521	4.289209100131	0
0	557	4.407481064974	1
0	558	4.407857064974	0
0	572	4.435952760765	1
0	573	4.436328760765	0
0	580	4.455759273415	1
0	581	4.456143273415	0
0	623	4.457911273415	1
0	624	4.458287273415	0
0	637	4.567337017609	1
0	638	4.567721017609	0
0	697	4.703725273232	1
0	698	4.704109273232	0
0	841	4.777333844538	1
0	848	4.777709844538	0
0	848	4.777709844538	1
0	851	4.778101844538	0
0	989	4.924460468398	1
0	990	4.924836468398	0
0	1027	4.984829190465	1
0	1028	4.985213190465	0
0	1224	5.60606396936	1
0	1225	5.60644796936	0
1	0	0	0
1	140	0.669545579394	1
1	141	0.669953579394	0
1	153	0.671361579394	1
1	154	0.671745579394	0
1	242	1.027229326335	1
1	243	1.027637326335	0
1	257	1.029021326335	1
1	260	1.029397326335	0
1	336	3.365215002899	1
1	337	3.365599002899	0
1	390	3.473156897366	1
1	391	3.473532897366	0
1	430	3.620103520493	1
1	431	3.620487520493	0
1	467	3.785118138005	1
1	468	3.785494138005	0
1	512	4.131561147252	1
1	513	4.131937147252	0
1	652	4.571732719748	1
1	653	4.572116719748	0
1	761	4.763390738608	1
1	764	4.763766738608	0
1	846	4.777333844538	1
1	849	4.777725844538	0
1	1049	4.988458819544	1
1	1050	4.988834819544	0
1	1066	5.061247538194	1
1	1067	5.061623538194	0
1	1089	5.167970765832	1
1	1090	5.168354765832	0
1	1104	5.210237864681	1
1	1105	5.210621864681	0
1	1119	5.223454452834	1
1	1120	5.223838452834	0
1	1209	5.586013308633	1
1	1210	5.586397308633	0
1	1246	5.646893587938	1
1	1247	5.647269587938	0
2	0	0	0
2	82	0.336092789575	1
2	83	0.336500789575	0
2	97	0.337884789575	1
2	100	0.338260789575	0
2	108	0.574342200995	1
2	109	0.574750200995	0
2	121	0.576158200995	1
2	122	0.576542200995	0
2	671	4.701860533829	1
2	673	4.702244533829	0
2	847	4.777333844538	1
2	850	4.777725844538	0
2	974	4.8590898211	1
2	975	4.8594658211	0
2	1149	5.368294262031	1
2	1150	5.368678262031	0
2	1269	5.734791042329	1
2	1270	5.735175042329	0
3	0	0	0
4	0	0	0
4	18	0.156735509384	1
4	19	0.157143509384	0
4	33	0.158527509384	1
4	36	0.158903509384	0
4	44	0.28166969512	1
4	45	0.28207769512	0
4	57	0.28348569512	1
4	58	0.28386969512	0
4	482	3.836236641377	1
4	483	3.836612641377	0
4	490	3.940916165654	1
4	491	3.941300165654	0
4	527	4.289709100131	1
4	528	4.290085100131	0
4	550	4.406597064974	1
4	551	4.406981064974	0
4	565	4.435068760765	1
4	566	4.435452760765	0
4	590	4.456643273415	1
4	597	4.457019273415	0
4	597	4.457019273415	1
4	600	4.457411273415	0
4	644	4.568221017609	1
4	645	4.568597017609	0
4	704	4.704609273232	1
4	705	4.704985273232	0
4	831	4.776449844538	1
4	832	4.776833844538	0
4	880	4.778601844538	1
4	886	4.778977844538	0
4	982	4.923576468398	1
4	983	4.923960468398	0
4	1034	4.985713190465	1
4	1035	4.986089190465	0
4	1231	5.60694796936	1
4	1232	5.60732396936	0
5	0	0	0
5	352	3.416760765404	1
5	353	3.417168765404	0
5	365	3.418576765404	1
5	366	3.418960765404	0
5	405	3.586191974731	1
5	406	3.586599974731	0
5	420	3.587983974731	1
5	423	3.588359974731	0
5	452	3.735310893765	1
5	453	3.735686893765	0
5	542	4.344153084261	1
5	543	4.344529084261	0
5	595	4.456643273415	1
5	598	4.457035273415	0
5	667	4.70155638551	1
5	672	4.70194038551	0
5	712	4.740469558641	1
5	713	4.740853558641	0
5	762	4.763390738608	1
5	765	4.763766738608	0
5	816	4.767416365734	1
5	817	4.767800365734	0
5	1004	4.938441056062	1
5	1005	4.938817056062	0
5	1012	4.969842528763	1
5	1013	4.970226528763	0
5	1186	5.427131874752	1
5	1187	5.427507874752	0
5	1261	5.700270461012	1
5	1262	5.700646461012	0
6	0	0	0
6	210	0.999534667074	1
6	211	0.999942667074	0
6	225	1.001326667074	1
6	228	1.001702667074	0
6	268	1.224203341777	1
6	269	1.224611341777	0
6	281	1.226019341777	1
6	282	1.226403341777	0
6	596	4.456643273415	1
6	599	4.457035273415	0
6	959	4.851795897335	1
6	960	4.852171897335	0
6	1134	5.351232341685	1
6	1135	5.351616341685	0
6	1164	5.409678397656	1
6	1165	5.410062397656	0
7	0	0	0
7	884	4.778601844538	1
7	887	4.779009844538	0
7	920	4.780417844538	1
7	922	4.780801844538	0
8	0	0	0
8	146	0.670453579394	1
8	147	0.670861579394	0
8	161	0.672245579394	1
8	164	0.672621579394	0
8	236	1.026321326335	1
8	237	1.026729326335	0
8	249	1.028137326335	1
8	250	1.028521326335	0
8	343	3.366099002899	1
8	344	3.366475002899	0
8	383	3.472272897366	1
8	384	3.472656897366	0
8	437	3.620987520493	1
8	438	3.621363520493	0
8	460	3.784234138005	1
8	461	3.784618138005	0
8	505	4.130677147252	1
8	506	4.131061147252	0
8	659	4.572616719748	1
8	660	4.572992719748	0
8	741	4.762498738608	1
8	745	4.762890738608	0
8	866	4.778225844538	1
8	873	4.778601844538	0
8	1042	4.987574819544	1
8	1043	4.987958819544	0
8	1059	5.060363538194	1
8	1060	5.060747538194	0
8	1096	5.168854765832	1
8	1097	5.169230765832	0
8	1111	5.211121864681	1
8	1112	5.211497864681	0
8	1126	5.224338452834	1
8	1127	5.224714452834	0
8	1216	5.586897308633	1
8	1217	5.587273308633	0
8	1239	5.646009587938	1
8	1240	5.646393587938	0
9	0	0	0
9	358	3.417668765404	1
9	359	3.418076765404	0
9	373	3.419460765404	1
9	376	3.419836765404	0
9	399	3.585283974731	1
9	400	3.585691974731	0
9	412	3.587099974731	1
9	413	3.587483974731	0
9	445	3.734426893765	1
9	446	3.734810893765	0
9	535	4.343269084261	1
9	536	4.343653084261	0
9	614	4.457535273415	1
9	617	4.457911273415	0
9	679	4.70244038551	1
9	686	4.70281638551	0
9	719	4.741353558641	1
9	720	4.741729558641	0
9	742	4.762498738608	1
9	746	4.762890738608	0
9	823	4.768300365734	1
9	824	4.768676365734	0
9	997	4.937557056062	1
9	998	4.937941056062	0
9	1019	4.970726528763	1
9	1020	4.971102528763	0
9	1179	5.426247874752	1
9	1180	5.426631874752	0
9	1254	5.699386461012	1
9	1255	5.699770461012	0
10	0	0	0
10	178	0.68583490817	1
10	179	0.68624290817	0
10	193	0.68762690817	1
10	196	0.68800290817	0
10	300	1.591310492264	1
10	301	1.591718492264	0
10	313	1.593126492264	1
10	314	1.593510492264	0
10	737	4.762498738608	1
10	744	4.762874738608	0
10	744	4.762874738608	1
10	747	4.763266738608	0
10	1074	5.136138923673	1
10	1075	5.136522923673	0
10	1194	5.478371415386	1
10	1195	5.478755415386	0
11	0	0	0
11	871	4.778225844538	1
11	885	4.778633844538	0
11	914	4.780041844538	1
11	921	4.780425844538	0
12	0	0	0
12	76	0.335184789575	1
12	77	0.335592789575	0
12	89	0.337000789575	1
12	90	0.337384789575	0
12	114	0.575250200995	1
12	115	0.575658200995	0
12	129	0.577042200995	1
12	132	0.577418200995	0
12	685	4.702744533829	1
12	687	4.703120533829	0
12	867	4.778225844538	1
12	874	4.778601844538	0
12	967	4.8582058211	1
12	968	4.8585898211	0
12	1156	5.369178262031	1
12	1157	5.369554262031	0
12	1276	5.735675042329	1
12	1277	5.736051042329	0
13	0	0	0
13	204	0.998626667074	1
13	205	0.999034667074	0
13	217	1.000442667074	1
13	218	1.000826667074	0
13	274	1.225111341777	1
13	275	1.225519341777	0
13	289	1.226903341777	1
13	292	1.227279341777	0
13	615	4.457535273415	1
13	618	4.457911273415	0
13	952	4.850911897335	1
13	953	4.851295897335	0
13	1141	5.352116341685	1
13	1142	5.352492341685	0
13	1171	5.410562397656	1
13	1172	5.410938397656	0
14	0	0	0
14	172	0.68492690817	1
14	173	0.68533490817	0
14	185	0.68674290817	1
14	186	0.68712690817	0
14	306	1.592218492264	1
14	307	1.592626492264	0
14	321	1.594010492264	1
14	324	1.594386492264	0
14	727	4.761614738608	1
14	728	4.761998738608	0
14	771	4.763766738608	1
14	776	4.764142738608	0
14	1081	5.137022923673	1
14	1082	5.137398923673	0
14	1201	5.479255415386	1
14	1202	5.479631415386	0
15	0	0	0
15	775	4.763766738608	1
15	777	4.764174738608	0
15	798	4.765582738608	1
15	799	4.765966738608	0
16	0	0	0
17	0	0	0
17	906	4.779509844538	1
17	908	4.779917844538	0
17	939	4.781301844538	1
17	942	4.781677844538	0
18	0	0	0
18	898	4.779133844538	1
18	907	4.779541844538	0
18	929	4.780925844538	1
18	933	4.781301844538	0
19	0	0	0
19	791	4.764674738608	1
19	792	4.765082738608	0
19	806	4.766466738608	1
19	809	4.766842738608	0
20	9	0.155827509384	0
20	22	0.157643509384	0
20	473	3.835352641377	0
20	518	4.288825100131	0
20	578	4.455759273415	0
20	635	4.567337017609	0
20	695	4.703725273232	0
20	838	4.777333844538	0
20	1025	4.984829190465	0
20	1222	5.60606396936	0
21	9	0.155827509384	7504
21	22	0.157643509384	46688
21	22	0.157643509384	46688
21	473	3.835352641377	46688
21	518	4.288825100131	46688
21	578	4.455759273415	46688
21	635	4.567337017609	46688
21	695	4.703725273232	46688
21	838	4.777333844538	46688
21	1025	4.984829190465	46688
21	1222	5.60606396936	46688
22	9	0.155827509384	7504
22	22	0.157643509384	7504
22	473	3.835352641377	7504
22	518	4.288825100131	7504
22	578	4.455759273415	7504
22	635	4.567337017609	7504
22	695	4.703725273232	7504
22	838	4.777333844538	7504
22	1025	4.984829190465	7504
22	1222	5.60606396936	7504
23	9	0.155827509384	0
23	22	0.157643509384	39184
23	473	3.835352641377	39184
23	518	4.288825100131	39184
23	578	4.455759273415	39184
23	635	4.567337017609	39184
23	695	4.703725273232	39184
23	838	4.777333844538	39184
23	1025	4.984829190465	39184
23	1222	5.60606396936	39184
24	12	0.155827509384	44
24	25	0.157643509384	41
24	50	0.28257769512	44
24	65	0.28436969512	40
24	475	3.835352641377	41
24	497	3.941800165654	40
24	520	4.288825100131	41
24	557	4.407481064974	40
24	572	4.435952760765	40
24	580	4.455759273415	41
24	623	4.457911273415	40
24	637	4.567337017609	41
24	697	4.703725273232	41
24	841	4.777333844538	40
24	845	4.777333844538	42
24	989	4.924460468398	40
24	1027	4.984829190465	41
24	1224	5.60606396936	41
25	12	0.155827509384	44
25	25	0.157643509384	41
25	50	0.28257769512	44
25	65	0.28436969512	40
25	475	3.835352641377	41
25	497	3.941800165654	40
25	520	4.288825100131	41
25	557	4.407481064974	40
25	572	4.435952760765	40
25	580	4.455759273415	41
25	623	4.457911273415	40
25	637	4.567337017609	41
25	697	4.703725273232	41
25	841	4.777333844538	40
25	845	4.777333844538	42
25	989	4.924460468398	40
25	1027	4.984829190465	41
25	1224	5.60606396936	41
26	12	0.155827509384	1
26	12	0.155827509384	0
26	25	0.157643509384	1
26	25	0.157643509384	0
26	50	0.28257769512	1
26	50	0.28257769512	0
26	65	0.28436969512	1
26	65	0.28436969512	0
26	475	3.835352641377	1
26	475	3.835352641377	0
26	497	3.941800165654	1
26	497	3.941800165654	0
26	520	4.288825100131	1
26	520	4.288825100131	0
26	557	4.407481064974	1
26	557	4.407481064974	0
26	572	4.435952760765	1
26	572	4.435952760765	0
26	580	4.455759273415	1
26	580	4.455759273415	0
26	623	4.457911273415	1
26	623	4.457911273415	0
26	637	4.567337017609	1
26	637	4.567337017609	0
26	697	4.703725273232	1
26	697	4.703725273232	0
26	841	4.777333844538	1
[...]
378	714	4.741353558641	48
378	779	4.764266738608	47
378	818	4.768300365734	48
378	1006	4.939317056062	47
378	1014	4.970726528763	48
378	1188	5.428007874752	47
378	1263	5.701146461012	47
379	354	3.417668765404	44
379	367	3.419460765404	41
379	407	3.587099974731	44
379	424	3.588859974731	40
379	454	3.736186893765	40
379	544	4.345029084261	40
379	604	4.457535273415	42
379	674	4.70244038551	41
379	714	4.741353558641	41
379	779	4.764266738608	40
379	818	4.768300365734	41
379	1006	4.939317056062	40
379	1014	4.970726528763	41
379	1188	5.428007874752	40
379	1263	5.701146461012	40
380	356	3.417668765404	861695
380	356	3.417668765404	861695
380	369	3.419460765404	861695
380	608	4.457535273415	861698
380	676	4.70244038551	861699
380	716	4.741353558641	861700
380	820	4.768300365734	861701
380	1016	4.970726528763	861702
381	356	3.417668765404	7504
381	369	3.419460765404	7504
382	356	3.417668765404	0
382	369	3.419460765404	0
382	369	3.419460765404	1
382	608	4.457535273415	0
382	608	4.457535273415	0
382	676	4.70244038551	0
382	676	4.70244038551	0
382	716	4.741353558641	0
382	716	4.741353558641	0
382	820	4.768300365734	0
382	820	4.768300365734	0
382	1016	4.970726528763	0
382	1016	4.970726528763	0
383	356	3.417668765404	7504
383	369	3.419460765404	7503
383	608	4.457535273415	7504
383	676	4.70244038551	7504
383	716	4.741353558641	7504
383	820	4.768300365734	7504
383	1016	4.970726528763	7504
384	356	3.417668765404	854191
384	369	3.419460765404	854192
384	608	4.457535273415	854194
384	676	4.70244038551	854195
384	716	4.741353558641	854196
384	820	4.768300365734	854197
384	1016	4.970726528763	854198
385	358	3.417668765404	44
385	373	3.419460765404	40
385	399	3.585283974731	44
385	412	3.587099974731	41
385	445	3.734426893765	41
385	535	4.343269084261	41
385	614	4.457535273415	40
385	679	4.70244038551	40
385	719	4.741353558641	40
385	742	4.762498738608	42
385	823	4.768300365734	40
385	997	4.937557056062	41
385	1019	4.970726528763	40
385	1179	5.426247874752	41
385	1254	5.699386461012	41
386	358	3.417668765404	44
386	373	3.419460765404	40
386	399	3.585283974731	44
386	412	3.587099974731	41
386	445	3.734426893765	41
386	535	4.343269084261	41
386	614	4.457535273415	40
386	679	4.70244038551	40
386	719	4.741353558641	40
386	742	4.762498738608	42
386	823	4.768300365734	40
386	997	4.937557056062	41
386	1019	4.970726528763	40
386	1179	5.426247874752	41
386	1254	5.699386461012	41
387	358	3.417668765404	1
387	358	3.417668765404	0
387	373	3.419460765404	1
387	373	3.419460765404	0
387	399	3.585283974731	1
387	399	3.585283974731	0
387	412	3.587099974731	1
387	412	3.587099974731	0
387	445	3.734426893765	1
387	445	3.734426893765	0
387	535	4.343269084261	1
387	535	4.343269084261	0
387	614	4.457535273415	1
387	614	4.457535273415	0
387	679	4.70244038551	1
387	679	4.70244038551	0
387	719	4.741353558641	1
387	719	4.741353558641	0
387	742	4.762498738608	1
387	742	4.762498738608	0
387	823	4.768300365734	1
387	823	4.768300365734	0
387	997	4.937557056062	1
387	997	4.937557056062	0
387	1019	4.970726528763	1
387	1019	4.970726528763	0
387	1179	5.426247874752	1
387	1179	5.426247874752	0
387	1254	5.699386461012	1
387	1254	5.699386461012	0
388	358	3.417668765404	44
388	373	3.419460765404	40
388	399	3.585283974731	44
388	412	3.587099974731	41
388	445	3.734426893765	41
388	535	4.343269084261	41
388	614	4.457535273415	40
388	679	4.70244038551	40
388	719	4.741353558641	40
388	742	4.762498738608	42
388	823	4.768300365734	40
388	997	4.937557056062	41
388	1019	4.970726528763	40
388	1179	5.426247874752	41
388	1254	5.699386461012	41
389	358	3.417668765404	0
389	373	3.419460765404	0
389	399	3.585283974731	0
389	412	3.587099974731	0
389	445	3.734426893765	0
389	535	4.343269084261	0
389	614	4.457535273415	0
389	679	4.70244038551	0
389	719	4.741353558641	0
389	742	4.762498738608	0
389	823	4.768300365734	0
389	997	4.937557056062	0
389	1019	4.970726528763	0
389	1179	5.426247874752	0
389	1254	5.699386461012	0
390	358	3.417668765404	51
390	373	3.419460765404	47
390	399	3.585283974731	51
390	412	3.587099974731	48
390	445	3.734426893765	48
390	535	4.343269084261	48
390	614	4.457535273415	47
390	679	4.70244038551	47
390	719	4.741353558641	47
390	742	4.762498738608	49
390	823	4.768300365734	47
390	997	4.937557056062	48
390	1019	4.970726528763	47
390	1179	5.426247874752	48
390	1254	5.699386461012	48
391	360	3.418576765404	51
391	377	3.420336765404	47
391	401	3.586191974731	51
391	414	3.587983974731	48
391	447	3.735310893765	48
391	537	4.344153084261	48
391	625	4.458411273415	47
391	688	4.70331638551	47
391	721	4.742229558641	47
391	752	4.763390738608	49
391	825	4.769176365734	47
391	999	4.938441056062	48
391	1021	4.971602528763	47
391	1181	5.427131874752	48
391	1256	5.700270461012	48
392	360	3.418576765404	44
392	377	3.420336765404	40
392	401	3.586191974731	44
392	414	3.587983974731	41
392	447	3.735310893765	41
392	537	4.344153084261	41
392	625	4.458411273415	40
392	688	4.70331638551	40
392	721	4.742229558641	40
392	752	4.763390738608	42
392	825	4.769176365734	40
392	999	4.938441056062	41
392	1021	4.971602528763	40
392	1181	5.427131874752	41
392	1256	5.700270461012	41
393	362	3.418576765404	854417
393	379	3.420336765404	854418
393	629	4.458411273415	854418
393	690	4.70331638551	854418
393	723	4.742229558641	854418
393	827	4.769176365734	854418
393	1023	4.971602528763	854418
394	362	3.418576765404	854191
394	379	3.420336765404	854192
394	629	4.458411273415	854194
394	690	4.70331638551	854195
394	723	4.742229558641	854196
394	827	4.769176365734	854197
394	1023	4.971602528763	854198
395	362	3.418576765404	7504
395	379	3.420336765404	7503
395	629	4.458411273415	7504
395	690	4.70331638551	7504
395	723	4.742229558641	7504
395	827	4.769176365734	7504
395	1023	4.971602528763	7504
396	362	3.418576765404	1
396	379	3.420336765404	0
396	588	4.456643273415	2
396	629	4.458411273415	0
396	665	4.70155638551	1
396	690	4.70331638551	0
396	710	4.740469558641	1
396	723	4.742229558641	0
396	814	4.767416365734	1
396	827	4.769176365734	0
396	1010	4.969842528763	1
396	1023	4.971602528763	0
397	369	3.419460765404	854191
397	608	4.457535273415	854192
397	676	4.70244038551	854194
397	716	4.741353558641	854195
397	820	4.768300365734	854196
397	1016	4.970726528763	854197
398	369	3.419460765404	854418
398	608	4.457535273415	854418
398	676	4.70244038551	854418
398	716	4.741353558641	854418
398	820	4.768300365734	854418
398	1016	4.970726528763	854418
399	369	3.419460765404	0
400	369	3.419460765404	1072
401	369	3.419460765404	4294967295
402	369	3.419460765404	0
402	608	4.457535273415	0
402	676	4.70244038551	0
402	716	4.741353558641	0
402	820	4.768300365734	0
402	1016	4.970726528763	0
403	379	3.420336765404	0.00176
403	629	4.458411273415	0.001768
403	690	4.70331638551	0.00176
403	723	4.742229558641	0.00176
403	827	4.769176365734	0.00176
403	1023	4.971602528763	0.00176
404	379	3.420336765404	0.00022
404	629	4.458411273415	0.0004135
404	690	4.70331638551	0.0005818125
404	723	4.742229558641	0.000729085938
404	827	4.769176365734	0.000857950196
404	1023	4.971602528763	0.000970706422
405	379	3.420336765404	0.65647
405	629	4.458411273415	0.57460475
405	690	4.70331638551	0.50294746875
405	723	4.742229558641	0.440226308594
405	827	4.769176365734	0.385326884278
405	1023	4.971602528763	0.337273779969
406	379	3.420336765404	2.6261
406	629	4.458411273415	2.2988325
406	690	4.70331638551	2.0123716875
406	723	4.742229558641	1.761634320314
406	827	4.769176365734	1.542165487308
406	1023	4.971602528763	1.350065826298
407	379	3.420336765404	1072
407	629	4.458411273415	1608
407	690	4.70331638551	2144
407	723	4.742229558641	2680
407	827	4.769176365734	3216
407	1023	4.971602528763	3752
408	379	3.420336765404	4294967295
408	629	4.458411273415	4294967295
408	690	4.70331638551	4294967295
408	723	4.742229558641	4294967295
408	827	4.769176365734	4294967295
408	1023	4.971602528763	4294967295
409	379	3.420336765404	0
409	629	4.458411273415	0
409	690	4.70331638551	0
409	723	4.742229558641	0
409	827	4.769176365734	0
409	1023	4.971602528763	0
410	396	3.585283974731	0
410	409	3.587099974731	0
410	443	3.734426893765	0
410	533	4.343269084261	0
410	735	4.762498738608	0
410	995	4.937557056062	0
410	1177	5.426247874752	0
410	1252	5.699386461012	0
411	396	3.585283974731	7504
411	409	3.587099974731	904052
411	409	3.587099974731	904052
411	443	3.734426893765	904052
411	533	4.343269084261	904052
411	735	4.762498738608	904052
411	995	4.937557056062	904052
411	1177	5.426247874752	904052
411	1252	5.699386461012	904052
412	396	3.585283974731	7504
412	409	3.587099974731	7504
412	443	3.734426893765	7504
412	533	4.343269084261	7504
412	735	4.762498738608	7504
412	995	4.937557056062	7504
412	1177	5.426247874752	7504
412	1252	5.699386461012	7504
413	396	3.585283974731	0
413	409	3.587099974731	896548
413	443	3.734426893765	896548
413	533	4.343269084261	896548
413	735	4.762498738608	896548
413	995	4.937557056062	896548
413	1177	5.426247874752	896548
413	1252	5.699386461012	896548
414	403	3.586191974731	903825
414	403	3.586191974731	903825
414	416	3.587983974731	903825
414	449	3.735310893765	903827
414	539	4.344153084261	903828
414	756	4.763390738608	903830
414	1001	4.938441056062	903831
414	1183	5.427131874752	903832
414	1258	5.700270461012	903833
415	403	3.586191974731	7504
415	416	3.587983974731	7504
416	403	3.586191974731	0
416	416	3.587983974731	0
416	416	3.587983974731	1
416	449	3.735310893765	0
416	449	3.735310893765	0
416	539	4.344153084261	0
416	539	4.344153084261	0
416	756	4.763390738608	0
416	756	4.763390738608	0
416	1001	4.938441056062	0
416	1001	4.938441056062	0
416	1183	5.427131874752	0
416	1183	5.427131874752	0
416	1258	5.700270461012	0
416	1258	5.700270461012	0
417	403	3.586191974731	7504
417	416	3.587983974731	7503
417	449	3.735310893765	7504
417	539	4.344153084261	7504
417	756	4.763390738608	7504
417	1001	4.938441056062	7504
417	1183	5.427131874752	7504
417	1258	5.700270461012	7504
418	403	3.586191974731	896321
418	416	3.587983974731	896322
418	449	3.735310893765	896323
418	539	4.344153084261	896324
418	756	4.763390738608	896326
418	1001	4.938441056062	896327
418	1183	5.427131874752	896328
418	1258	5.700270461012	896329
419	409	3.587099974731	896547
419	426	3.588859974731	896548
419	456	3.736186893765	896548
419	546	4.345029084261	896548
419	783	4.764266738608	896548
419	1008	4.939317056062	896548
419	1190	5.428007874752	896548
419	1265	5.701146461012	896548
420	409	3.587099974731	896321
420	426	3.588859974731	896322
420	456	3.736186893765	896323
420	546	4.345029084261	896324
420	783	4.764266738608	896326
420	1008	4.939317056062	896327
420	1190	5.428007874752	896328
420	1265	5.701146461012	896329
421	409	3.587099974731	7504
421	426	3.588859974731	7503
421	456	3.736186893765	7504
421	546	4.345029084261	7504
421	783	4.764266738608	7504
421	1008	4.939317056062	7504
421	1190	5.428007874752	7504
421	1265	5.701146461012	7504
422	409	3.587099974731	1
422	426	3.588859974731	0
422	443	3.734426893765	1
422	456	3.736186893765	0
422	533	4.343269084261	1
422	546	4.345029084261	0
422	735	4.762498738608	2
422	783	4.764266738608	0
422	995	4.937557056062	1
422	1008	4.939317056062	0
422	1177	5.426247874752	1
422	1190	5.428007874752	0
422	1252	5.699386461012	1
422	1265	5.701146461012	0
423	416	3.587983974731	896321
423	449	3.735310893765	896322
423	539	4.344153084261	896323
423	756	4.763390738608	896324
423	1001	4.938441056062	896326
423	1183	5.427131874752	896327
423	1258	5.700270461012	896328
424	416	3.587983974731	896548
424	449	3.735310893765	896548
424	539	4.344153084261	896548
424	756	4.763390738608	896548
424	1001	4.938441056062	896548
424	1183	5.427131874752	896548
424	1258	5.700270461012	896548
425	416	3.587983974731	0
426	416	3.587983974731	1072
427	416	3.587983974731	4294967295
428	416	3.587983974731	0
428	449	3.735310893765	0
428	539	4.344153084261	0
428	756	4.763390738608	0
428	1001	4.938441056062	0
428	1183	5.427131874752	0
428	1258	5.700270461012	0
429	426	3.588859974731	0.00176
429	456	3.736186893765	0.00176
429	546	4.345029084261	0.00176
429	783	4.764266738608	0.001768
429	1008	4.939317056062	0.00176
429	1190	5.428007874752	0.00176
429	1265	5.701146461012	0.00176
430	426	3.588859974731	0.00022
430	456	3.736186893765	0.0004125
430	546	4.345029084261	0.0005809375
430	783	4.764266738608	0.000729320313
430	1008	4.939317056062	0.000858155274
430	1190	5.428007874752	0.000970885865
430	1265	5.701146461012	0.001069525132
431	426	3.588859974731	0.65647
431	456	3.736186893765	0.57460375
431	546	4.345029084261	0.50294671875
431	783	4.764266738608	0.440226761719
431	1008	4.939317056062	0.385327251465
431	1190	5.428007874752	0.337274075623
431	1265	5.701146461012	0.295213455437
432	426	3.588859974731	2.6261
432	456	3.736186893765	2.2988275
432	546	4.345029084261	2.0123678125
432	783	4.764266738608	1.761636367189
432	1008	4.939317056062	1.542167161134
432	1190	5.428007874752	1.350067188357
432	1265	5.701146461012	1.18192334688
433	426	3.588859974731	1072
433	456	3.736186893765	1608
433	546	4.345029084261	2144
433	783	4.764266738608	2680
433	1008	4.939317056062	3216
433	1190	5.428007874752	3752
433	1265	5.701146461012	4288
434	426	3.588859974731	4294967295
434	456	3.736186893765	4294967295
434	546	4.345029084261	4294967295
434	783	4.764266738608	4294967295
434	1008	4.939317056062	4294967295
434	1190	5.428007874752	4294967295
434	1265	5.701146461012	4294967295
435	426	3.588859974731	0
435	456	3.736186893765	0
435	546	4.345029084261	0
435	783	4.764266738608	0
435	1008	4.939317056062	0
435	1190	5.428007874752	0
435	1265	5.701146461012	0
436	772	4.763766738608	0
436	795	4.765582738608	0
437	772	4.763766738608	7504
437	795	4.765582738608	1198673
437	795	4.765582738608	1198673
438	772	4.763766738608	7504
438	795	4.765582738608	7504
439	772	4.763766738608	0
439	795	4.765582738608	1191169
440	775	4.763766738608	44
440	798	4.765582738608	41
441	775	4.763766738608	44
441	798	4.765582738608	41
442	775	4.763766738608	1
442	775	4.763766738608	0
442	798	4.765582738608	1
442	798	4.765582738608	0
443	775	4.763766738608	44
443	798	4.765582738608	41
444	775	4.763766738608	0
444	798	4.765582738608	0
445	775	4.763766738608	51
445	798	4.765582738608	48
446	787	4.764674738608	51
446	800	4.766466738608	48
447	787	4.764674738608	44
447	800	4.766466738608	41
448	789	4.764674738608	1190941
448	896	4.779133844538	1194556
448	904	4.779509844538	1194650
449	789	4.764674738608	0
449	896	4.779133844538	0
449	904	4.779509844538	0
450	789	4.764674738608	1198446
450	789	4.764674738608	1198446
450	802	4.766466738608	1198446
451	789	4.764674738608	7504
451	802	4.766466738608	7504
452	789	4.764674738608	0
452	802	4.766466738608	0
452	802	4.766466738608	1
453	789	4.764674738608	7504
453	802	4.766466738608	7503
454	789	4.764674738608	1190942
454	802	4.766466738608	1190943
455	791	4.764674738608	44
455	806	4.766466738608	40
456	791	4.764674738608	44
456	806	4.766466738608	40
457	791	4.764674738608	1
457	791	4.764674738608	0
457	806	4.766466738608	1
457	806	4.766466738608	0
458	791	4.764674738608	44
458	806	4.766466738608	40
459	791	4.764674738608	0
459	806	4.766466738608	0
460	791	4.764674738608	51
460	806	4.766466738608	47
461	793	4.765582738608	51
461	810	4.767342738608	47
462	793	4.765582738608	44
462	810	4.767342738608	40
463	795	4.765582738608	1191168
463	812	4.767342738608	1191169
464	795	4.765582738608	1190942
464	812	4.767342738608	1190943
465	795	4.765582738608	7504
465	812	4.767342738608	7503
466	795	4.765582738608	1
466	812	4.767342738608	0
467	802	4.766466738608	1190942
468	802	4.766466738608	1191169
469	802	4.766466738608	0
470	802	4.766466738608	1072
471	802	4.766466738608	4294967295
472	802	4.766466738608	0
473	812	4.767342738608	0.00176
474	812	4.767342738608	0.00022
475	812	4.767342738608	0.65647
476	812	4.767342738608	2.6261
477	812	4.767342738608	1072
478	812	4.767342738608	4294967295
479	812	4.767342738608	0
480	868	4.778225844538	0
480	911	4.780041844538	0
481	868	4.778225844538	7504
481	911	4.780041844538	1202288
481	911	4.780041844538	1202288
482	868	4.778225844538	7504
482	911	4.780041844538	7504
483	868	4.778225844538	0
483	911	4.780041844538	1194784
484	871	4.778225844538	44
484	914	4.780041844538	41
485	871	4.778225844538	44
485	914	4.780041844538	41
486	871	4.778225844538	1
486	871	4.778225844538	0
486	914	4.780041844538	1
486	914	4.780041844538	0
487	871	4.778225844538	44
487	914	4.780041844538	41
488	871	4.778225844538	0
488	914	4.780041844538	0
489	871	4.778225844538	51
489	914	4.780041844538	48
490	881	4.778601844538	0
490	917	4.780417844538	0
491	881	4.778601844538	7504
491	917	4.780417844538	1202382
491	917	4.780417844538	1202382
492	881	4.778601844538	7504
492	917	4.780417844538	7504
493	881	4.778601844538	0
493	917	4.780417844538	1194878
494	884	4.778601844538	44
494	920	4.780417844538	41
495	884	4.778601844538	44
495	920	4.780417844538	41
496	884	4.778601844538	1
496	884	4.778601844538	0
496	920	4.780417844538	1
496	920	4.780417844538	0
497	884	4.778601844538	44
497	920	4.780417844538	41
498	884	4.778601844538	0
498	920	4.780417844538	0
499	884	4.778601844538	51
499	920	4.780417844538	48
500	894	4.779133844538	51
500	923	4.780925844538	48
501	894	4.779133844538	44
501	923	4.780925844538	41
502	896	4.779133844538	1202061
502	896	4.779133844538	1202061
502	925	4.780925844538	1202061
503	896	4.779133844538	7504
503	925	4.780925844538	7504
504	896	4.779133844538	0
504	925	4.780925844538	0
504	925	4.780925844538	1
505	896	4.779133844538	7504
505	925	4.780925844538	7503
506	896	4.779133844538	1194557
506	925	4.780925844538	1194558
507	898	4.779133844538	44
507	929	4.780925844538	40
508	898	4.779133844538	44
508	929	4.780925844538	40
509	898	4.779133844538	1
509	898	4.779133844538	0
509	929	4.780925844538	1
509	929	4.780925844538	0
510	898	4.779133844538	44
510	929	4.780925844538	40
511	898	4.779133844538	0
511	929	4.780925844538	0
512	898	4.779133844538	51
512	929	4.780925844538	47
513	902	4.779509844538	51
513	932	4.781301844538	48
514	902	4.779509844538	44
514	932	4.781301844538	41
515	904	4.779509844538	1202155
515	904	4.779509844538	1202155
515	935	4.781301844538	1202155
516	904	4.779509844538	7504
516	935	4.781301844538	7504
517	904	4.779509844538	0
517	935	4.781301844538	0
517	935	4.781301844538	1
518	904	4.779509844538	7504
518	935	4.781301844538	7503
519	904	4.779509844538	1194651
519	935	4.781301844538	1194652
520	906	4.779509844538	44
520	939	4.781301844538	40
521	906	4.779509844538	44
521	939	4.781301844538	40
522	906	4.779509844538	1
522	906	4.779509844538	0
522	939	4.781301844538	1
522	939	4.781301844538	0
523	906	4.779509844538	44
523	939	4.781301844538	40
524	906	4.779509844538	0
524	939	4.781301844538	0
525	906	4.779509844538	51
525	939	4.781301844538	47
526	909	4.780041844538	51
526	943	4.781801844538	47
527	909	4.780041844538	44
527	943	4.781801844538	40
528	911	4.780041844538	1194783
528	945	4.781801844538	1194784
529	911	4.780041844538	1194557
529	945	4.781801844538	1194558
530	911	4.780041844538	7504
530	945	4.781801844538	7503
531	911	4.780041844538	1
531	945	4.781801844538	0
532	915	4.780417844538	51
532	946	4.782177844538	47
533	915	4.780417844538	44
533	946	4.782177844538	40
534	917	4.780417844538	1194877
534	948	4.782177844538	1194878
535	917	4.780417844538	1194651
535	948	4.782177844538	1194652
536	917	4.780417844538	7504
536	948	4.782177844538	7503
537	917	4.780417844538	1
537	948	4.782177844538	0
538	925	4.780925844538	1194557
539	925	4.780925844538	1194784
540	925	4.780925844538	0
541	925	4.780925844538	1072
542	925	4.780925844538	4294967295
543	925	4.780925844538	0
544	935	4.781301844538	1194651
545	935	4.781301844538	1194878
546	935	4.781301844538	0
547	935	4.781301844538	1072
548	935	4.781301844538	4294967295
549	935	4.781301844538	0
550	945	4.781801844538	0.00176
551	945	4.781801844538	0.00022
552	945	4.781801844538	0.65647
553	945	4.781801844538	2.6261
554	945	4.781801844538	1072
555	945	4.781801844538	4294967295
556	945	4.781801844538	0
557	948	4.782177844538	0.00176
558	948	4.782177844538	0.00022
559	948	4.782177844538	0.65647
560	948	4.782177844538	2.6261
561	948	4.782177844538	1072
562	948	4.782177844538	4294967295
563	948	4.782177844538	0

